
---------- Begin Simulation Statistics ----------
final_tick                               1171881839000                       # Number of ticks from beginning of simulation (restored from checkpoints and never reset)
host_inst_rate                                 107991                       # Simulator instruction rate (inst/s)
host_mem_usage                                 859252                       # Number of bytes of host memory used
host_op_rate                                   116502                       # Simulator op (including micro ops) rate (op/s)
host_seconds                                 18813.41                       # Real time elapsed on the host
host_tick_rate                               25861420                       # Simulator tick rate (ticks/s)
sim_freq                                 1000000000000                       # Frequency of simulated ticks
sim_insts                                  2031675978                       # Number of instructions simulated
sim_ops                                    2191804688                       # Number of ops (including micro ops) simulated
sim_seconds                                  0.486541                       # Number of seconds simulated
sim_ticks                                486541477750                       # Number of ticks simulated
system.cpu.committedInsts                           0                       # Number of instructions committed
system.cpu.committedOps                             0                       # Number of ops (including micro ops) committed
system.cpu.dtb.accesses                             0                       # DTB accesses
system.cpu.dtb.align_faults                         0                       # Number of TLB faults due to alignment restrictions
system.cpu.dtb.domain_faults                        0                       # Number of TLB faults due to domain restrictions
system.cpu.dtb.flush_entries                        0                       # Number of entries that have been flushed from TLB
system.cpu.dtb.flush_tlb                            0                       # Number of times complete TLB was flushed
system.cpu.dtb.flush_tlb_asid                       0                       # Number of times TLB was flushed by ASID
system.cpu.dtb.flush_tlb_mva                        0                       # Number of times TLB was flushed by MVA
system.cpu.dtb.flush_tlb_mva_asid                   0                       # Number of times TLB was flushed by MVA & ASID
system.cpu.dtb.hits                                 0                       # DTB hits
system.cpu.dtb.inst_accesses                        0                       # ITB inst accesses
system.cpu.dtb.inst_hits                            0                       # ITB inst hits
system.cpu.dtb.inst_misses                          0                       # ITB inst misses
system.cpu.dtb.misses                               0                       # DTB misses
system.cpu.dtb.perms_faults                         0                       # Number of TLB faults due to permissions restrictions
system.cpu.dtb.prefetch_faults                      0                       # Number of TLB faults due to prefetch
system.cpu.dtb.read_accesses                        0                       # DTB read accesses
system.cpu.dtb.read_hits                            0                       # DTB read hits
system.cpu.dtb.read_misses                          0                       # DTB read misses
system.cpu.dtb.stage2_mmu.stage2_tlb.accesses            0                       # DTB accesses
system.cpu.dtb.stage2_mmu.stage2_tlb.align_faults            0                       # Number of TLB faults due to alignment restrictions
system.cpu.dtb.stage2_mmu.stage2_tlb.domain_faults            0                       # Number of TLB faults due to domain restrictions
system.cpu.dtb.stage2_mmu.stage2_tlb.flush_entries            0                       # Number of entries that have been flushed from TLB
system.cpu.dtb.stage2_mmu.stage2_tlb.flush_tlb            0                       # Number of times complete TLB was flushed
system.cpu.dtb.stage2_mmu.stage2_tlb.flush_tlb_asid            0                       # Number of times TLB was flushed by ASID
system.cpu.dtb.stage2_mmu.stage2_tlb.flush_tlb_mva            0                       # Number of times TLB was flushed by MVA
system.cpu.dtb.stage2_mmu.stage2_tlb.flush_tlb_mva_asid            0                       # Number of times TLB was flushed by MVA & ASID
system.cpu.dtb.stage2_mmu.stage2_tlb.hits            0                       # DTB hits
system.cpu.dtb.stage2_mmu.stage2_tlb.inst_accesses            0                       # ITB inst accesses
system.cpu.dtb.stage2_mmu.stage2_tlb.inst_hits            0                       # ITB inst hits
system.cpu.dtb.stage2_mmu.stage2_tlb.inst_misses            0                       # ITB inst misses
system.cpu.dtb.stage2_mmu.stage2_tlb.misses            0                       # DTB misses
system.cpu.dtb.stage2_mmu.stage2_tlb.perms_faults            0                       # Number of TLB faults due to permissions restrictions
system.cpu.dtb.stage2_mmu.stage2_tlb.prefetch_faults            0                       # Number of TLB faults due to prefetch
system.cpu.dtb.stage2_mmu.stage2_tlb.read_accesses            0                       # DTB read accesses
system.cpu.dtb.stage2_mmu.stage2_tlb.read_hits            0                       # DTB read hits
system.cpu.dtb.stage2_mmu.stage2_tlb.read_misses            0                       # DTB read misses
system.cpu.dtb.stage2_mmu.stage2_tlb.walker.walkRequestOrigin_Requested::Data            0                       # Table walker requests started/completed, data/inst
system.cpu.dtb.stage2_mmu.stage2_tlb.walker.walkRequestOrigin_Requested::Inst            0                       # Table walker requests started/completed, data/inst
system.cpu.dtb.stage2_mmu.stage2_tlb.walker.walkRequestOrigin_Requested::total            0                       # Table walker requests started/completed, data/inst
system.cpu.dtb.stage2_mmu.stage2_tlb.walker.walkRequestOrigin_Completed::Data            0                       # Table walker requests started/completed, data/inst
system.cpu.dtb.stage2_mmu.stage2_tlb.walker.walkRequestOrigin_Completed::Inst            0                       # Table walker requests started/completed, data/inst
system.cpu.dtb.stage2_mmu.stage2_tlb.walker.walkRequestOrigin_Completed::total            0                       # Table walker requests started/completed, data/inst
system.cpu.dtb.stage2_mmu.stage2_tlb.walker.walkRequestOrigin::total            0                       # Table walker requests started/completed, data/inst
system.cpu.dtb.stage2_mmu.stage2_tlb.walker.walks            0                       # Table walker walks requested
system.cpu.dtb.stage2_mmu.stage2_tlb.write_accesses            0                       # DTB write accesses
system.cpu.dtb.stage2_mmu.stage2_tlb.write_hits            0                       # DTB write hits
system.cpu.dtb.stage2_mmu.stage2_tlb.write_misses            0                       # DTB write misses
system.cpu.dtb.walker.walkRequestOrigin_Requested::Data            0                       # Table walker requests started/completed, data/inst
system.cpu.dtb.walker.walkRequestOrigin_Requested::Inst            0                       # Table walker requests started/completed, data/inst
system.cpu.dtb.walker.walkRequestOrigin_Requested::total            0                       # Table walker requests started/completed, data/inst
system.cpu.dtb.walker.walkRequestOrigin_Completed::Data            0                       # Table walker requests started/completed, data/inst
system.cpu.dtb.walker.walkRequestOrigin_Completed::Inst            0                       # Table walker requests started/completed, data/inst
system.cpu.dtb.walker.walkRequestOrigin_Completed::total            0                       # Table walker requests started/completed, data/inst
system.cpu.dtb.walker.walkRequestOrigin::total            0                       # Table walker requests started/completed, data/inst
system.cpu.dtb.walker.walks                         0                       # Table walker walks requested
system.cpu.dtb.write_accesses                       0                       # DTB write accesses
system.cpu.dtb.write_hits                           0                       # DTB write hits
system.cpu.dtb.write_misses                         0                       # DTB write misses
system.cpu.idle_fraction                            0                       # Percentage of idle cycles
system.cpu.itb.accesses                             0                       # DTB accesses
system.cpu.itb.align_faults                         0                       # Number of TLB faults due to alignment restrictions
system.cpu.itb.domain_faults                        0                       # Number of TLB faults due to domain restrictions
system.cpu.itb.flush_entries                        0                       # Number of entries that have been flushed from TLB
system.cpu.itb.flush_tlb                            0                       # Number of times complete TLB was flushed
system.cpu.itb.flush_tlb_asid                       0                       # Number of times TLB was flushed by ASID
system.cpu.itb.flush_tlb_mva                        0                       # Number of times TLB was flushed by MVA
system.cpu.itb.flush_tlb_mva_asid                   0                       # Number of times TLB was flushed by MVA & ASID
system.cpu.itb.hits                                 0                       # DTB hits
system.cpu.itb.inst_accesses                        0                       # ITB inst accesses
system.cpu.itb.inst_hits                            0                       # ITB inst hits
system.cpu.itb.inst_misses                          0                       # ITB inst misses
system.cpu.itb.misses                               0                       # DTB misses
system.cpu.itb.perms_faults                         0                       # Number of TLB faults due to permissions restrictions
system.cpu.itb.prefetch_faults                      0                       # Number of TLB faults due to prefetch
system.cpu.itb.read_accesses                        0                       # DTB read accesses
system.cpu.itb.read_hits                            0                       # DTB read hits
system.cpu.itb.read_misses                          0                       # DTB read misses
system.cpu.itb.stage2_mmu.stage2_tlb.accesses            0                       # DTB accesses
system.cpu.itb.stage2_mmu.stage2_tlb.align_faults            0                       # Number of TLB faults due to alignment restrictions
system.cpu.itb.stage2_mmu.stage2_tlb.domain_faults            0                       # Number of TLB faults due to domain restrictions
system.cpu.itb.stage2_mmu.stage2_tlb.flush_entries            0                       # Number of entries that have been flushed from TLB
system.cpu.itb.stage2_mmu.stage2_tlb.flush_tlb            0                       # Number of times complete TLB was flushed
system.cpu.itb.stage2_mmu.stage2_tlb.flush_tlb_asid            0                       # Number of times TLB was flushed by ASID
system.cpu.itb.stage2_mmu.stage2_tlb.flush_tlb_mva            0                       # Number of times TLB was flushed by MVA
system.cpu.itb.stage2_mmu.stage2_tlb.flush_tlb_mva_asid            0                       # Number of times TLB was flushed by MVA & ASID
system.cpu.itb.stage2_mmu.stage2_tlb.hits            0                       # DTB hits
system.cpu.itb.stage2_mmu.stage2_tlb.inst_accesses            0                       # ITB inst accesses
system.cpu.itb.stage2_mmu.stage2_tlb.inst_hits            0                       # ITB inst hits
system.cpu.itb.stage2_mmu.stage2_tlb.inst_misses            0                       # ITB inst misses
system.cpu.itb.stage2_mmu.stage2_tlb.misses            0                       # DTB misses
system.cpu.itb.stage2_mmu.stage2_tlb.perms_faults            0                       # Number of TLB faults due to permissions restrictions
system.cpu.itb.stage2_mmu.stage2_tlb.prefetch_faults            0                       # Number of TLB faults due to prefetch
system.cpu.itb.stage2_mmu.stage2_tlb.read_accesses            0                       # DTB read accesses
system.cpu.itb.stage2_mmu.stage2_tlb.read_hits            0                       # DTB read hits
system.cpu.itb.stage2_mmu.stage2_tlb.read_misses            0                       # DTB read misses
system.cpu.itb.stage2_mmu.stage2_tlb.walker.walkRequestOrigin_Requested::Data            0                       # Table walker requests started/completed, data/inst
system.cpu.itb.stage2_mmu.stage2_tlb.walker.walkRequestOrigin_Requested::Inst            0                       # Table walker requests started/completed, data/inst
system.cpu.itb.stage2_mmu.stage2_tlb.walker.walkRequestOrigin_Requested::total            0                       # Table walker requests started/completed, data/inst
system.cpu.itb.stage2_mmu.stage2_tlb.walker.walkRequestOrigin_Completed::Data            0                       # Table walker requests started/completed, data/inst
system.cpu.itb.stage2_mmu.stage2_tlb.walker.walkRequestOrigin_Completed::Inst            0                       # Table walker requests started/completed, data/inst
system.cpu.itb.stage2_mmu.stage2_tlb.walker.walkRequestOrigin_Completed::total            0                       # Table walker requests started/completed, data/inst
system.cpu.itb.stage2_mmu.stage2_tlb.walker.walkRequestOrigin::total            0                       # Table walker requests started/completed, data/inst
system.cpu.itb.stage2_mmu.stage2_tlb.walker.walks            0                       # Table walker walks requested
system.cpu.itb.stage2_mmu.stage2_tlb.write_accesses            0                       # DTB write accesses
system.cpu.itb.stage2_mmu.stage2_tlb.write_hits            0                       # DTB write hits
system.cpu.itb.stage2_mmu.stage2_tlb.write_misses            0                       # DTB write misses
system.cpu.itb.walker.walkRequestOrigin_Requested::Data            0                       # Table walker requests started/completed, data/inst
system.cpu.itb.walker.walkRequestOrigin_Requested::Inst            0                       # Table walker requests started/completed, data/inst
system.cpu.itb.walker.walkRequestOrigin_Requested::total            0                       # Table walker requests started/completed, data/inst
system.cpu.itb.walker.walkRequestOrigin_Completed::Data            0                       # Table walker requests started/completed, data/inst
system.cpu.itb.walker.walkRequestOrigin_Completed::Inst            0                       # Table walker requests started/completed, data/inst
system.cpu.itb.walker.walkRequestOrigin_Completed::total            0                       # Table walker requests started/completed, data/inst
system.cpu.itb.walker.walkRequestOrigin::total            0                       # Table walker requests started/completed, data/inst
system.cpu.itb.walker.walks                         0                       # Table walker walks requested
system.cpu.itb.write_accesses                       0                       # DTB write accesses
system.cpu.itb.write_hits                           0                       # DTB write hits
system.cpu.itb.write_misses                         0                       # DTB write misses
system.cpu.not_idle_fraction                        1                       # Percentage of non-idle cycles
system.cpu.numCycles                                0                       # number of cpu cycles simulated
system.cpu.numWorkItemsCompleted                    0                       # number of work items this cpu completed
system.cpu.numWorkItemsStarted                      0                       # number of work items this cpu started
system.cpu.num_busy_cycles                          0                       # Number of busy cycles
system.cpu.num_conditional_control_insts            0                       # number of instructions that are conditional controls
system.cpu.num_fp_alu_accesses                      0                       # Number of float alu accesses
system.cpu.num_fp_insts                             0                       # number of float instructions
system.cpu.num_fp_register_reads                    0                       # number of times the floating registers were read
system.cpu.num_fp_register_writes                   0                       # number of times the floating registers were written
system.cpu.num_func_calls                           0                       # number of times a function call or return occured
system.cpu.num_idle_cycles                          0                       # Number of idle cycles
system.cpu.num_int_alu_accesses                     0                       # Number of integer alu accesses
system.cpu.num_int_insts                            0                       # number of integer instructions
system.cpu.num_int_register_reads                   0                       # number of times the integer registers were read
system.cpu.num_int_register_writes                  0                       # number of times the integer registers were written
system.cpu.num_load_insts                           0                       # Number of load instructions
system.cpu.num_mem_refs                             0                       # number of memory refs
system.cpu.num_store_insts                          0                       # Number of store instructions
system.cpu.num_vec_alu_accesses                     0                       # Number of vector alu accesses
system.cpu.num_vec_insts                            0                       # number of vector instructions
system.cpu.num_vec_register_reads                   0                       # number of times the vector registers were read
system.cpu.num_vec_register_writes                  0                       # number of times the vector registers were written
system.cpu.op_class::No_OpClass                     0                       # Class of executed instruction
system.cpu.op_class::IntAlu                         0                       # Class of executed instruction
system.cpu.op_class::IntMult                        0                       # Class of executed instruction
system.cpu.op_class::IntDiv                         0                       # Class of executed instruction
system.cpu.op_class::FloatAdd                       0                       # Class of executed instruction
system.cpu.op_class::FloatCmp                       0                       # Class of executed instruction
system.cpu.op_class::FloatCvt                       0                       # Class of executed instruction
system.cpu.op_class::FloatMult                      0                       # Class of executed instruction
system.cpu.op_class::FloatMultAcc                   0                       # Class of executed instruction
system.cpu.op_class::FloatDiv                       0                       # Class of executed instruction
system.cpu.op_class::FloatMisc                      0                       # Class of executed instruction
system.cpu.op_class::FloatSqrt                      0                       # Class of executed instruction
system.cpu.op_class::SimdAdd                        0                       # Class of executed instruction
system.cpu.op_class::SimdAddAcc                     0                       # Class of executed instruction
system.cpu.op_class::SimdAlu                        0                       # Class of executed instruction
system.cpu.op_class::SimdCmp                        0                       # Class of executed instruction
system.cpu.op_class::SimdCvt                        0                       # Class of executed instruction
system.cpu.op_class::SimdMisc                       0                       # Class of executed instruction
system.cpu.op_class::SimdMult                       0                       # Class of executed instruction
system.cpu.op_class::SimdMultAcc                    0                       # Class of executed instruction
system.cpu.op_class::SimdShift                      0                       # Class of executed instruction
system.cpu.op_class::SimdShiftAcc                   0                       # Class of executed instruction
system.cpu.op_class::SimdDiv                        0                       # Class of executed instruction
system.cpu.op_class::SimdSqrt                       0                       # Class of executed instruction
system.cpu.op_class::SimdFloatAdd                   0                       # Class of executed instruction
system.cpu.op_class::SimdFloatAlu                   0                       # Class of executed instruction
system.cpu.op_class::SimdFloatCmp                   0                       # Class of executed instruction
system.cpu.op_class::SimdFloatCvt                   0                       # Class of executed instruction
system.cpu.op_class::SimdFloatDiv                   0                       # Class of executed instruction
system.cpu.op_class::SimdFloatMisc                  0                       # Class of executed instruction
system.cpu.op_class::SimdFloatMult                  0                       # Class of executed instruction
system.cpu.op_class::SimdFloatMultAcc               0                       # Class of executed instruction
system.cpu.op_class::SimdFloatSqrt                  0                       # Class of executed instruction
system.cpu.op_class::SimdReduceAdd                  0                       # Class of executed instruction
system.cpu.op_class::SimdReduceAlu                  0                       # Class of executed instruction
system.cpu.op_class::SimdReduceCmp                  0                       # Class of executed instruction
system.cpu.op_class::SimdFloatReduceAdd             0                       # Class of executed instruction
system.cpu.op_class::SimdFloatReduceCmp             0                       # Class of executed instruction
system.cpu.op_class::SimdAes                        0                       # Class of executed instruction
system.cpu.op_class::SimdAesMix                     0                       # Class of executed instruction
system.cpu.op_class::SimdSha1Hash                   0                       # Class of executed instruction
system.cpu.op_class::SimdSha1Hash2                  0                       # Class of executed instruction
system.cpu.op_class::SimdSha256Hash                 0                       # Class of executed instruction
system.cpu.op_class::SimdSha256Hash2                0                       # Class of executed instruction
system.cpu.op_class::SimdShaSigma2                  0                       # Class of executed instruction
system.cpu.op_class::SimdShaSigma3                  0                       # Class of executed instruction
system.cpu.op_class::SimdPredAlu                    0                       # Class of executed instruction
system.cpu.op_class::MemRead                        0                       # Class of executed instruction
system.cpu.op_class::MemWrite                       0                       # Class of executed instruction
system.cpu.op_class::FloatMemRead                   0                       # Class of executed instruction
system.cpu.op_class::FloatMemWrite                  0                       # Class of executed instruction
system.cpu.op_class::IprAccess                      0                       # Class of executed instruction
system.cpu.op_class::InstPrefetch                   0                       # Class of executed instruction
system.cpu.op_class::total                          0                       # Class of executed instruction
system.cpu.workload.numSyscalls                     1                       # Number of system calls
system.membus.snoop_filter.hit_multi_requests            0                       # Number of requests hitting in the snoop filter with multiple (>1) holders of the requested data.
system.membus.snoop_filter.hit_multi_snoops            0                       # Number of snoops hitting in the snoop filter with multiple (>1) holders of the requested data.
system.membus.snoop_filter.hit_single_requests      3535121                       # Number of requests hitting in the snoop filter with a single holder of the requested data.
system.membus.snoop_filter.hit_single_snoops            0                       # Number of snoops hitting in the snoop filter with a single holder of the requested data.
system.membus.snoop_filter.tot_requests       7070243                       # Total number of requests made to the snoop filter.
system.membus.snoop_filter.tot_snoops               0                       # Total number of snoops made to the snoop filter.
system.switch_cpus.committedInsts                   0                       # Number of instructions committed
system.switch_cpus.committedOps                     0                       # Number of ops (including micro ops) committed
system.switch_cpus.dtb.accesses                     0                       # DTB accesses
system.switch_cpus.dtb.align_faults                 0                       # Number of TLB faults due to alignment restrictions
system.switch_cpus.dtb.domain_faults                0                       # Number of TLB faults due to domain restrictions
system.switch_cpus.dtb.flush_entries                0                       # Number of entries that have been flushed from TLB
system.switch_cpus.dtb.flush_tlb                    0                       # Number of times complete TLB was flushed
system.switch_cpus.dtb.flush_tlb_asid               0                       # Number of times TLB was flushed by ASID
system.switch_cpus.dtb.flush_tlb_mva                0                       # Number of times TLB was flushed by MVA
system.switch_cpus.dtb.flush_tlb_mva_asid            0                       # Number of times TLB was flushed by MVA & ASID
system.switch_cpus.dtb.hits                         0                       # DTB hits
system.switch_cpus.dtb.inst_accesses                0                       # ITB inst accesses
system.switch_cpus.dtb.inst_hits                    0                       # ITB inst hits
system.switch_cpus.dtb.inst_misses                  0                       # ITB inst misses
system.switch_cpus.dtb.misses                       0                       # DTB misses
system.switch_cpus.dtb.perms_faults                 0                       # Number of TLB faults due to permissions restrictions
system.switch_cpus.dtb.prefetch_faults              0                       # Number of TLB faults due to prefetch
system.switch_cpus.dtb.read_accesses                0                       # DTB read accesses
system.switch_cpus.dtb.read_hits                    0                       # DTB read hits
system.switch_cpus.dtb.read_misses                  0                       # DTB read misses
system.switch_cpus.dtb.stage2_mmu.stage2_tlb.accesses            0                       # DTB accesses
system.switch_cpus.dtb.stage2_mmu.stage2_tlb.align_faults            0                       # Number of TLB faults due to alignment restrictions
system.switch_cpus.dtb.stage2_mmu.stage2_tlb.domain_faults            0                       # Number of TLB faults due to domain restrictions
system.switch_cpus.dtb.stage2_mmu.stage2_tlb.flush_entries            0                       # Number of entries that have been flushed from TLB
system.switch_cpus.dtb.stage2_mmu.stage2_tlb.flush_tlb            0                       # Number of times complete TLB was flushed
system.switch_cpus.dtb.stage2_mmu.stage2_tlb.flush_tlb_asid            0                       # Number of times TLB was flushed by ASID
system.switch_cpus.dtb.stage2_mmu.stage2_tlb.flush_tlb_mva            0                       # Number of times TLB was flushed by MVA
system.switch_cpus.dtb.stage2_mmu.stage2_tlb.flush_tlb_mva_asid            0                       # Number of times TLB was flushed by MVA & ASID
system.switch_cpus.dtb.stage2_mmu.stage2_tlb.hits            0                       # DTB hits
system.switch_cpus.dtb.stage2_mmu.stage2_tlb.inst_accesses            0                       # ITB inst accesses
system.switch_cpus.dtb.stage2_mmu.stage2_tlb.inst_hits            0                       # ITB inst hits
system.switch_cpus.dtb.stage2_mmu.stage2_tlb.inst_misses            0                       # ITB inst misses
system.switch_cpus.dtb.stage2_mmu.stage2_tlb.misses            0                       # DTB misses
system.switch_cpus.dtb.stage2_mmu.stage2_tlb.perms_faults            0                       # Number of TLB faults due to permissions restrictions
system.switch_cpus.dtb.stage2_mmu.stage2_tlb.prefetch_faults            0                       # Number of TLB faults due to prefetch
system.switch_cpus.dtb.stage2_mmu.stage2_tlb.read_accesses            0                       # DTB read accesses
system.switch_cpus.dtb.stage2_mmu.stage2_tlb.read_hits            0                       # DTB read hits
system.switch_cpus.dtb.stage2_mmu.stage2_tlb.read_misses            0                       # DTB read misses
system.switch_cpus.dtb.stage2_mmu.stage2_tlb.walker.walkRequestOrigin_Requested::Data            0                       # Table walker requests started/completed, data/inst
system.switch_cpus.dtb.stage2_mmu.stage2_tlb.walker.walkRequestOrigin_Requested::Inst            0                       # Table walker requests started/completed, data/inst
system.switch_cpus.dtb.stage2_mmu.stage2_tlb.walker.walkRequestOrigin_Requested::total            0                       # Table walker requests started/completed, data/inst
system.switch_cpus.dtb.stage2_mmu.stage2_tlb.walker.walkRequestOrigin_Completed::Data            0                       # Table walker requests started/completed, data/inst
system.switch_cpus.dtb.stage2_mmu.stage2_tlb.walker.walkRequestOrigin_Completed::Inst            0                       # Table walker requests started/completed, data/inst
system.switch_cpus.dtb.stage2_mmu.stage2_tlb.walker.walkRequestOrigin_Completed::total            0                       # Table walker requests started/completed, data/inst
system.switch_cpus.dtb.stage2_mmu.stage2_tlb.walker.walkRequestOrigin::total            0                       # Table walker requests started/completed, data/inst
system.switch_cpus.dtb.stage2_mmu.stage2_tlb.walker.walks            0                       # Table walker walks requested
system.switch_cpus.dtb.stage2_mmu.stage2_tlb.write_accesses            0                       # DTB write accesses
system.switch_cpus.dtb.stage2_mmu.stage2_tlb.write_hits            0                       # DTB write hits
system.switch_cpus.dtb.stage2_mmu.stage2_tlb.write_misses            0                       # DTB write misses
system.switch_cpus.dtb.walker.walkRequestOrigin_Requested::Data            0                       # Table walker requests started/completed, data/inst
system.switch_cpus.dtb.walker.walkRequestOrigin_Requested::Inst            0                       # Table walker requests started/completed, data/inst
system.switch_cpus.dtb.walker.walkRequestOrigin_Requested::total            0                       # Table walker requests started/completed, data/inst
system.switch_cpus.dtb.walker.walkRequestOrigin_Completed::Data            0                       # Table walker requests started/completed, data/inst
system.switch_cpus.dtb.walker.walkRequestOrigin_Completed::Inst            0                       # Table walker requests started/completed, data/inst
system.switch_cpus.dtb.walker.walkRequestOrigin_Completed::total            0                       # Table walker requests started/completed, data/inst
system.switch_cpus.dtb.walker.walkRequestOrigin::total            0                       # Table walker requests started/completed, data/inst
system.switch_cpus.dtb.walker.walks                 0                       # Table walker walks requested
system.switch_cpus.dtb.write_accesses               0                       # DTB write accesses
system.switch_cpus.dtb.write_hits                   0                       # DTB write hits
system.switch_cpus.dtb.write_misses                 0                       # DTB write misses
system.switch_cpus.idle_fraction                    0                       # Percentage of idle cycles
system.switch_cpus.itb.accesses                     0                       # DTB accesses
system.switch_cpus.itb.align_faults                 0                       # Number of TLB faults due to alignment restrictions
system.switch_cpus.itb.domain_faults                0                       # Number of TLB faults due to domain restrictions
system.switch_cpus.itb.flush_entries                0                       # Number of entries that have been flushed from TLB
system.switch_cpus.itb.flush_tlb                    0                       # Number of times complete TLB was flushed
system.switch_cpus.itb.flush_tlb_asid               0                       # Number of times TLB was flushed by ASID
system.switch_cpus.itb.flush_tlb_mva                0                       # Number of times TLB was flushed by MVA
system.switch_cpus.itb.flush_tlb_mva_asid            0                       # Number of times TLB was flushed by MVA & ASID
system.switch_cpus.itb.hits                         0                       # DTB hits
system.switch_cpus.itb.inst_accesses                0                       # ITB inst accesses
system.switch_cpus.itb.inst_hits                    0                       # ITB inst hits
system.switch_cpus.itb.inst_misses                  0                       # ITB inst misses
system.switch_cpus.itb.misses                       0                       # DTB misses
system.switch_cpus.itb.perms_faults                 0                       # Number of TLB faults due to permissions restrictions
system.switch_cpus.itb.prefetch_faults              0                       # Number of TLB faults due to prefetch
system.switch_cpus.itb.read_accesses                0                       # DTB read accesses
system.switch_cpus.itb.read_hits                    0                       # DTB read hits
system.switch_cpus.itb.read_misses                  0                       # DTB read misses
system.switch_cpus.itb.stage2_mmu.stage2_tlb.accesses            0                       # DTB accesses
system.switch_cpus.itb.stage2_mmu.stage2_tlb.align_faults            0                       # Number of TLB faults due to alignment restrictions
system.switch_cpus.itb.stage2_mmu.stage2_tlb.domain_faults            0                       # Number of TLB faults due to domain restrictions
system.switch_cpus.itb.stage2_mmu.stage2_tlb.flush_entries            0                       # Number of entries that have been flushed from TLB
system.switch_cpus.itb.stage2_mmu.stage2_tlb.flush_tlb            0                       # Number of times complete TLB was flushed
system.switch_cpus.itb.stage2_mmu.stage2_tlb.flush_tlb_asid            0                       # Number of times TLB was flushed by ASID
system.switch_cpus.itb.stage2_mmu.stage2_tlb.flush_tlb_mva            0                       # Number of times TLB was flushed by MVA
system.switch_cpus.itb.stage2_mmu.stage2_tlb.flush_tlb_mva_asid            0                       # Number of times TLB was flushed by MVA & ASID
system.switch_cpus.itb.stage2_mmu.stage2_tlb.hits            0                       # DTB hits
system.switch_cpus.itb.stage2_mmu.stage2_tlb.inst_accesses            0                       # ITB inst accesses
system.switch_cpus.itb.stage2_mmu.stage2_tlb.inst_hits            0                       # ITB inst hits
system.switch_cpus.itb.stage2_mmu.stage2_tlb.inst_misses            0                       # ITB inst misses
system.switch_cpus.itb.stage2_mmu.stage2_tlb.misses            0                       # DTB misses
system.switch_cpus.itb.stage2_mmu.stage2_tlb.perms_faults            0                       # Number of TLB faults due to permissions restrictions
system.switch_cpus.itb.stage2_mmu.stage2_tlb.prefetch_faults            0                       # Number of TLB faults due to prefetch
system.switch_cpus.itb.stage2_mmu.stage2_tlb.read_accesses            0                       # DTB read accesses
system.switch_cpus.itb.stage2_mmu.stage2_tlb.read_hits            0                       # DTB read hits
system.switch_cpus.itb.stage2_mmu.stage2_tlb.read_misses            0                       # DTB read misses
system.switch_cpus.itb.stage2_mmu.stage2_tlb.walker.walkRequestOrigin_Requested::Data            0                       # Table walker requests started/completed, data/inst
system.switch_cpus.itb.stage2_mmu.stage2_tlb.walker.walkRequestOrigin_Requested::Inst            0                       # Table walker requests started/completed, data/inst
system.switch_cpus.itb.stage2_mmu.stage2_tlb.walker.walkRequestOrigin_Requested::total            0                       # Table walker requests started/completed, data/inst
system.switch_cpus.itb.stage2_mmu.stage2_tlb.walker.walkRequestOrigin_Completed::Data            0                       # Table walker requests started/completed, data/inst
system.switch_cpus.itb.stage2_mmu.stage2_tlb.walker.walkRequestOrigin_Completed::Inst            0                       # Table walker requests started/completed, data/inst
system.switch_cpus.itb.stage2_mmu.stage2_tlb.walker.walkRequestOrigin_Completed::total            0                       # Table walker requests started/completed, data/inst
system.switch_cpus.itb.stage2_mmu.stage2_tlb.walker.walkRequestOrigin::total            0                       # Table walker requests started/completed, data/inst
system.switch_cpus.itb.stage2_mmu.stage2_tlb.walker.walks            0                       # Table walker walks requested
system.switch_cpus.itb.stage2_mmu.stage2_tlb.write_accesses            0                       # DTB write accesses
system.switch_cpus.itb.stage2_mmu.stage2_tlb.write_hits            0                       # DTB write hits
system.switch_cpus.itb.stage2_mmu.stage2_tlb.write_misses            0                       # DTB write misses
system.switch_cpus.itb.walker.walkRequestOrigin_Requested::Data            0                       # Table walker requests started/completed, data/inst
system.switch_cpus.itb.walker.walkRequestOrigin_Requested::Inst            0                       # Table walker requests started/completed, data/inst
system.switch_cpus.itb.walker.walkRequestOrigin_Requested::total            0                       # Table walker requests started/completed, data/inst
system.switch_cpus.itb.walker.walkRequestOrigin_Completed::Data            0                       # Table walker requests started/completed, data/inst
system.switch_cpus.itb.walker.walkRequestOrigin_Completed::Inst            0                       # Table walker requests started/completed, data/inst
system.switch_cpus.itb.walker.walkRequestOrigin_Completed::total            0                       # Table walker requests started/completed, data/inst
system.switch_cpus.itb.walker.walkRequestOrigin::total            0                       # Table walker requests started/completed, data/inst
system.switch_cpus.itb.walker.walks                 0                       # Table walker walks requested
system.switch_cpus.itb.write_accesses               0                       # DTB write accesses
system.switch_cpus.itb.write_hits                   0                       # DTB write hits
system.switch_cpus.itb.write_misses                 0                       # DTB write misses
system.switch_cpus.not_idle_fraction                1                       # Percentage of non-idle cycles
system.switch_cpus.numCycles                        0                       # number of cpu cycles simulated
system.switch_cpus.numWorkItemsCompleted            0                       # number of work items this cpu completed
system.switch_cpus.numWorkItemsStarted              0                       # number of work items this cpu started
system.switch_cpus.num_busy_cycles                  0                       # Number of busy cycles
system.switch_cpus.num_conditional_control_insts            0                       # number of instructions that are conditional controls
system.switch_cpus.num_fp_alu_accesses              0                       # Number of float alu accesses
system.switch_cpus.num_fp_insts                     0                       # number of float instructions
system.switch_cpus.num_fp_register_reads            0                       # number of times the floating registers were read
system.switch_cpus.num_fp_register_writes            0                       # number of times the floating registers were written
system.switch_cpus.num_func_calls                   0                       # number of times a function call or return occured
system.switch_cpus.num_idle_cycles                  0                       # Number of idle cycles
system.switch_cpus.num_int_alu_accesses             0                       # Number of integer alu accesses
system.switch_cpus.num_int_insts                    0                       # number of integer instructions
system.switch_cpus.num_int_register_reads            0                       # number of times the integer registers were read
system.switch_cpus.num_int_register_writes            0                       # number of times the integer registers were written
system.switch_cpus.num_load_insts                   0                       # Number of load instructions
system.switch_cpus.num_mem_refs                     0                       # number of memory refs
system.switch_cpus.num_store_insts                  0                       # Number of store instructions
system.switch_cpus.num_vec_alu_accesses             0                       # Number of vector alu accesses
system.switch_cpus.num_vec_insts                    0                       # number of vector instructions
system.switch_cpus.num_vec_register_reads            0                       # number of times the vector registers were read
system.switch_cpus.num_vec_register_writes            0                       # number of times the vector registers were written
system.switch_cpus.op_class::No_OpClass             0                       # Class of executed instruction
system.switch_cpus.op_class::IntAlu                 0                       # Class of executed instruction
system.switch_cpus.op_class::IntMult                0                       # Class of executed instruction
system.switch_cpus.op_class::IntDiv                 0                       # Class of executed instruction
system.switch_cpus.op_class::FloatAdd               0                       # Class of executed instruction
system.switch_cpus.op_class::FloatCmp               0                       # Class of executed instruction
system.switch_cpus.op_class::FloatCvt               0                       # Class of executed instruction
system.switch_cpus.op_class::FloatMult              0                       # Class of executed instruction
system.switch_cpus.op_class::FloatMultAcc            0                       # Class of executed instruction
system.switch_cpus.op_class::FloatDiv               0                       # Class of executed instruction
system.switch_cpus.op_class::FloatMisc              0                       # Class of executed instruction
system.switch_cpus.op_class::FloatSqrt              0                       # Class of executed instruction
system.switch_cpus.op_class::SimdAdd                0                       # Class of executed instruction
system.switch_cpus.op_class::SimdAddAcc             0                       # Class of executed instruction
system.switch_cpus.op_class::SimdAlu                0                       # Class of executed instruction
system.switch_cpus.op_class::SimdCmp                0                       # Class of executed instruction
system.switch_cpus.op_class::SimdCvt                0                       # Class of executed instruction
system.switch_cpus.op_class::SimdMisc               0                       # Class of executed instruction
system.switch_cpus.op_class::SimdMult               0                       # Class of executed instruction
system.switch_cpus.op_class::SimdMultAcc            0                       # Class of executed instruction
system.switch_cpus.op_class::SimdShift              0                       # Class of executed instruction
system.switch_cpus.op_class::SimdShiftAcc            0                       # Class of executed instruction
system.switch_cpus.op_class::SimdDiv                0                       # Class of executed instruction
system.switch_cpus.op_class::SimdSqrt               0                       # Class of executed instruction
system.switch_cpus.op_class::SimdFloatAdd            0                       # Class of executed instruction
system.switch_cpus.op_class::SimdFloatAlu            0                       # Class of executed instruction
system.switch_cpus.op_class::SimdFloatCmp            0                       # Class of executed instruction
system.switch_cpus.op_class::SimdFloatCvt            0                       # Class of executed instruction
system.switch_cpus.op_class::SimdFloatDiv            0                       # Class of executed instruction
system.switch_cpus.op_class::SimdFloatMisc            0                       # Class of executed instruction
system.switch_cpus.op_class::SimdFloatMult            0                       # Class of executed instruction
system.switch_cpus.op_class::SimdFloatMultAcc            0                       # Class of executed instruction
system.switch_cpus.op_class::SimdFloatSqrt            0                       # Class of executed instruction
system.switch_cpus.op_class::SimdReduceAdd            0                       # Class of executed instruction
system.switch_cpus.op_class::SimdReduceAlu            0                       # Class of executed instruction
system.switch_cpus.op_class::SimdReduceCmp            0                       # Class of executed instruction
system.switch_cpus.op_class::SimdFloatReduceAdd            0                       # Class of executed instruction
system.switch_cpus.op_class::SimdFloatReduceCmp            0                       # Class of executed instruction
system.switch_cpus.op_class::SimdAes                0                       # Class of executed instruction
system.switch_cpus.op_class::SimdAesMix             0                       # Class of executed instruction
system.switch_cpus.op_class::SimdSha1Hash            0                       # Class of executed instruction
system.switch_cpus.op_class::SimdSha1Hash2            0                       # Class of executed instruction
system.switch_cpus.op_class::SimdSha256Hash            0                       # Class of executed instruction
system.switch_cpus.op_class::SimdSha256Hash2            0                       # Class of executed instruction
system.switch_cpus.op_class::SimdShaSigma2            0                       # Class of executed instruction
system.switch_cpus.op_class::SimdShaSigma3            0                       # Class of executed instruction
system.switch_cpus.op_class::SimdPredAlu            0                       # Class of executed instruction
system.switch_cpus.op_class::MemRead                0                       # Class of executed instruction
system.switch_cpus.op_class::MemWrite               0                       # Class of executed instruction
system.switch_cpus.op_class::FloatMemRead            0                       # Class of executed instruction
system.switch_cpus.op_class::FloatMemWrite            0                       # Class of executed instruction
system.switch_cpus.op_class::IprAccess              0                       # Class of executed instruction
system.switch_cpus.op_class::InstPrefetch            0                       # Class of executed instruction
system.switch_cpus.op_class::total                  0                       # Class of executed instruction
system.switch_cpus_1.branchPred.BTBCorrect            0                       # Number of correct BTB predictions (this stat may not work properly.
system.switch_cpus_1.branchPred.BTBHitPct    99.976670                       # BTB Hit Percentage
system.switch_cpus_1.branchPred.BTBHits      10053223                       # Number of BTB hits
system.switch_cpus_1.branchPred.BTBLookups     10055569                       # Number of BTB lookups
system.switch_cpus_1.branchPred.RASInCorrect            6                       # Number of incorrect RAS predictions.
system.switch_cpus_1.branchPred.condIncorrect       267640                       # Number of conditional branches incorrect
system.switch_cpus_1.branchPred.condPredicted     12929678                       # Number of conditional branches predicted
system.switch_cpus_1.branchPred.indirectHits           79                       # Number of indirect target hits.
system.switch_cpus_1.branchPred.indirectLookups          264                       # Number of indirect predictor lookups.
system.switch_cpus_1.branchPred.indirectMisses          185                       # Number of indirect misses.
system.switch_cpus_1.branchPred.lookups      13942414                       # Number of BP lookups
system.switch_cpus_1.branchPred.usedRAS        202644                       # Number of times the RAS was used to get a target.
system.switch_cpus_1.branchPredindirectMispredicted           37                       # Number of mispredicted indirect branches.
system.switch_cpus_1.cc_regfile_reads        35150079                       # number of cc regfile reads
system.switch_cpus_1.cc_regfile_writes       35753470                       # number of cc regfile writes
system.switch_cpus_1.commit.amos                    0                       # Number of atomic instructions committed
system.switch_cpus_1.commit.branchMispredicts       267298                       # The number of times a branch was mispredicted
system.switch_cpus_1.commit.branches         13293843                       # Number of branches committed
system.switch_cpus_1.commit.bw_lim_events     74887672                       # number cycles where commit BW limit reached
system.switch_cpus_1.commit.commitNonSpecStalls            1                       # The number of times commit has been forced to stall to communicate backwards
system.switch_cpus_1.commit.commitSquashedInsts      5470939                       # The number of squashed insts skipped by commit
system.switch_cpus_1.commit.committedInsts    956779782                       # Number of instructions committed
system.switch_cpus_1.commit.committedOps    998779317                       # Number of ops (including micro ops) committed
system.switch_cpus_1.commit.committed_per_cycle::samples    971815562                       # Number of insts commited each cycle
system.switch_cpus_1.commit.committed_per_cycle::mean     1.027746                       # Number of insts commited each cycle
system.switch_cpus_1.commit.committed_per_cycle::stdev     2.394918                       # Number of insts commited each cycle
system.switch_cpus_1.commit.committed_per_cycle::underflows            0      0.00%      0.00% # Number of insts commited each cycle
system.switch_cpus_1.commit.committed_per_cycle::0    773626046     79.61%     79.61% # Number of insts commited each cycle
system.switch_cpus_1.commit.committed_per_cycle::1     32996527      3.40%     83.00% # Number of insts commited each cycle
system.switch_cpus_1.commit.committed_per_cycle::2     24522259      2.52%     85.52% # Number of insts commited each cycle
system.switch_cpus_1.commit.committed_per_cycle::3     17972033      1.85%     87.37% # Number of insts commited each cycle
system.switch_cpus_1.commit.committed_per_cycle::4     11151616      1.15%     88.52% # Number of insts commited each cycle
system.switch_cpus_1.commit.committed_per_cycle::5     13802609      1.42%     89.94% # Number of insts commited each cycle
system.switch_cpus_1.commit.committed_per_cycle::6      9896312      1.02%     90.96% # Number of insts commited each cycle
system.switch_cpus_1.commit.committed_per_cycle::7     12960488      1.33%     92.29% # Number of insts commited each cycle
system.switch_cpus_1.commit.committed_per_cycle::8     74887672      7.71%    100.00% # Number of insts commited each cycle
system.switch_cpus_1.commit.committed_per_cycle::overflows            0      0.00%    100.00% # Number of insts commited each cycle
system.switch_cpus_1.commit.committed_per_cycle::min_value            0                       # Number of insts commited each cycle
system.switch_cpus_1.commit.committed_per_cycle::max_value            8                       # Number of insts commited each cycle
system.switch_cpus_1.commit.committed_per_cycle::total    971815562                       # Number of insts commited each cycle
system.switch_cpus_1.commit.fp_insts                0                       # Number of committed floating point instructions.
system.switch_cpus_1.commit.function_calls       176281                       # Number of function calls committed.
system.switch_cpus_1.commit.int_insts       450267701                       # Number of committed integer instructions.
system.switch_cpus_1.commit.loads           207770804                       # Number of loads committed
system.switch_cpus_1.commit.membars                 0                       # Number of memory barriers committed
system.switch_cpus_1.commit.op_class_0::No_OpClass            0      0.00%      0.00% # Class of committed instruction
system.switch_cpus_1.commit.op_class_0::IntAlu    156395108     15.66%     15.66% # Class of committed instruction
system.switch_cpus_1.commit.op_class_0::IntMult      1903709      0.19%     15.85% # Class of committed instruction
system.switch_cpus_1.commit.op_class_0::IntDiv           63      0.00%     15.85% # Class of committed instruction
system.switch_cpus_1.commit.op_class_0::FloatAdd    111471998     11.16%     27.01% # Class of committed instruction
system.switch_cpus_1.commit.op_class_0::FloatCmp       442783      0.04%     27.05% # Class of committed instruction
system.switch_cpus_1.commit.op_class_0::FloatCvt      7739587      0.77%     27.83% # Class of committed instruction
system.switch_cpus_1.commit.op_class_0::FloatMult    123729158     12.39%     40.22% # Class of committed instruction
system.switch_cpus_1.commit.op_class_0::FloatMultAcc    218646296     21.89%     62.11% # Class of committed instruction
system.switch_cpus_1.commit.op_class_0::FloatDiv     24577660      2.46%     64.57% # Class of committed instruction
system.switch_cpus_1.commit.op_class_0::FloatMisc     24216694      2.42%     66.99% # Class of committed instruction
system.switch_cpus_1.commit.op_class_0::FloatSqrt     24053036      2.41%     69.40% # Class of committed instruction
system.switch_cpus_1.commit.op_class_0::SimdAdd            0      0.00%     69.40% # Class of committed instruction
system.switch_cpus_1.commit.op_class_0::SimdAddAcc            0      0.00%     69.40% # Class of committed instruction
system.switch_cpus_1.commit.op_class_0::SimdAlu         5225      0.00%     69.40% # Class of committed instruction
system.switch_cpus_1.commit.op_class_0::SimdCmp            0      0.00%     69.40% # Class of committed instruction
system.switch_cpus_1.commit.op_class_0::SimdCvt      1460543      0.15%     69.55% # Class of committed instruction
system.switch_cpus_1.commit.op_class_0::SimdMisc       307419      0.03%     69.58% # Class of committed instruction
system.switch_cpus_1.commit.op_class_0::SimdMult            0      0.00%     69.58% # Class of committed instruction
system.switch_cpus_1.commit.op_class_0::SimdMultAcc            0      0.00%     69.58% # Class of committed instruction
system.switch_cpus_1.commit.op_class_0::SimdShift            0      0.00%     69.58% # Class of committed instruction
system.switch_cpus_1.commit.op_class_0::SimdShiftAcc            0      0.00%     69.58% # Class of committed instruction
system.switch_cpus_1.commit.op_class_0::SimdDiv            0      0.00%     69.58% # Class of committed instruction
system.switch_cpus_1.commit.op_class_0::SimdSqrt            0      0.00%     69.58% # Class of committed instruction
system.switch_cpus_1.commit.op_class_0::SimdFloatAdd         3713      0.00%     69.58% # Class of committed instruction
system.switch_cpus_1.commit.op_class_0::SimdFloatAlu            0      0.00%     69.58% # Class of committed instruction
system.switch_cpus_1.commit.op_class_0::SimdFloatCmp            0      0.00%     69.58% # Class of committed instruction
system.switch_cpus_1.commit.op_class_0::SimdFloatCvt            0      0.00%     69.58% # Class of committed instruction
system.switch_cpus_1.commit.op_class_0::SimdFloatDiv            0      0.00%     69.58% # Class of committed instruction
system.switch_cpus_1.commit.op_class_0::SimdFloatMisc            0      0.00%     69.58% # Class of committed instruction
system.switch_cpus_1.commit.op_class_0::SimdFloatMult            0      0.00%     69.58% # Class of committed instruction
system.switch_cpus_1.commit.op_class_0::SimdFloatMultAcc            0      0.00%     69.58% # Class of committed instruction
system.switch_cpus_1.commit.op_class_0::SimdFloatSqrt            0      0.00%     69.58% # Class of committed instruction
system.switch_cpus_1.commit.op_class_0::SimdReduceAdd            0      0.00%     69.58% # Class of committed instruction
system.switch_cpus_1.commit.op_class_0::SimdReduceAlu            0      0.00%     69.58% # Class of committed instruction
system.switch_cpus_1.commit.op_class_0::SimdReduceCmp            0      0.00%     69.58% # Class of committed instruction
system.switch_cpus_1.commit.op_class_0::SimdFloatReduceAdd            0      0.00%     69.58% # Class of committed instruction
system.switch_cpus_1.commit.op_class_0::SimdFloatReduceCmp            0      0.00%     69.58% # Class of committed instruction
system.switch_cpus_1.commit.op_class_0::SimdAes            0      0.00%     69.58% # Class of committed instruction
system.switch_cpus_1.commit.op_class_0::SimdAesMix            0      0.00%     69.58% # Class of committed instruction
system.switch_cpus_1.commit.op_class_0::SimdSha1Hash            0      0.00%     69.58% # Class of committed instruction
system.switch_cpus_1.commit.op_class_0::SimdSha1Hash2            0      0.00%     69.58% # Class of committed instruction
system.switch_cpus_1.commit.op_class_0::SimdSha256Hash            0      0.00%     69.58% # Class of committed instruction
system.switch_cpus_1.commit.op_class_0::SimdSha256Hash2            0      0.00%     69.58% # Class of committed instruction
system.switch_cpus_1.commit.op_class_0::SimdShaSigma2            0      0.00%     69.58% # Class of committed instruction
system.switch_cpus_1.commit.op_class_0::SimdShaSigma3            0      0.00%     69.58% # Class of committed instruction
system.switch_cpus_1.commit.op_class_0::SimdPredAlu            0      0.00%     69.58% # Class of committed instruction
system.switch_cpus_1.commit.op_class_0::MemRead    207770804     20.80%     90.38% # Class of committed instruction
system.switch_cpus_1.commit.op_class_0::MemWrite     96055521      9.62%    100.00% # Class of committed instruction
system.switch_cpus_1.commit.op_class_0::FloatMemRead            0      0.00%    100.00% # Class of committed instruction
system.switch_cpus_1.commit.op_class_0::FloatMemWrite            0      0.00%    100.00% # Class of committed instruction
system.switch_cpus_1.commit.op_class_0::IprAccess            0      0.00%    100.00% # Class of committed instruction
system.switch_cpus_1.commit.op_class_0::InstPrefetch            0      0.00%    100.00% # Class of committed instruction
system.switch_cpus_1.commit.op_class_0::total    998779317                       # Class of committed instruction
system.switch_cpus_1.commit.refs            303826325                       # Number of memory references committed
system.switch_cpus_1.commit.swp_count               0                       # Number of s/w prefetches committed
system.switch_cpus_1.commit.vec_insts       824969286                       # Number of committed Vector instructions.
system.switch_cpus_1.committedInsts         956675976                       # Number of Instructions Simulated
system.switch_cpus_1.committedOps           998675511                       # Number of Ops (including micro ops) Simulated
system.switch_cpus_1.cpi                     1.017150                       # CPI: Cycles Per Instruction
system.switch_cpus_1.cpi_total               1.017150                       # CPI: Total CPI of All Threads
system.switch_cpus_1.decode.BlockedCycles    810133441                       # Number of cycles decode is blocked
system.switch_cpus_1.decode.BranchMispred          399                       # Number of times decode detected a branch misprediction
system.switch_cpus_1.decode.BranchResolved      9969632                       # Number of times decode resolved a branch
system.switch_cpus_1.decode.DecodedInsts   1007153655                       # Number of instructions handled by decode
system.switch_cpus_1.decode.IdleCycles       33026179                       # Number of cycles decode is idle
system.switch_cpus_1.decode.RunCycles        54194529                       # Number of cycles decode is running
system.switch_cpus_1.decode.SquashCycles       294292                       # Number of cycles decode is squashing
system.switch_cpus_1.decode.SquashedInsts         1494                       # Number of squashed instructions handled by decode
system.switch_cpus_1.decode.UnblockCycles     75025764                       # Number of cycles decode is unblocking
system.switch_cpus_1.dtb.accesses                   0                       # DTB accesses
system.switch_cpus_1.dtb.align_faults               0                       # Number of TLB faults due to alignment restrictions
system.switch_cpus_1.dtb.domain_faults              0                       # Number of TLB faults due to domain restrictions
system.switch_cpus_1.dtb.flush_entries              0                       # Number of entries that have been flushed from TLB
system.switch_cpus_1.dtb.flush_tlb                  0                       # Number of times complete TLB was flushed
system.switch_cpus_1.dtb.flush_tlb_asid             0                       # Number of times TLB was flushed by ASID
system.switch_cpus_1.dtb.flush_tlb_mva              0                       # Number of times TLB was flushed by MVA
system.switch_cpus_1.dtb.flush_tlb_mva_asid            0                       # Number of times TLB was flushed by MVA & ASID
system.switch_cpus_1.dtb.hits                       0                       # DTB hits
system.switch_cpus_1.dtb.inst_accesses              0                       # ITB inst accesses
system.switch_cpus_1.dtb.inst_hits                  0                       # ITB inst hits
system.switch_cpus_1.dtb.inst_misses                0                       # ITB inst misses
system.switch_cpus_1.dtb.misses                     0                       # DTB misses
system.switch_cpus_1.dtb.perms_faults               0                       # Number of TLB faults due to permissions restrictions
system.switch_cpus_1.dtb.prefetch_faults            0                       # Number of TLB faults due to prefetch
system.switch_cpus_1.dtb.read_accesses              0                       # DTB read accesses
system.switch_cpus_1.dtb.read_hits                  0                       # DTB read hits
system.switch_cpus_1.dtb.read_misses                0                       # DTB read misses
system.switch_cpus_1.dtb.stage2_mmu.stage2_tlb.accesses            0                       # DTB accesses
system.switch_cpus_1.dtb.stage2_mmu.stage2_tlb.align_faults            0                       # Number of TLB faults due to alignment restrictions
system.switch_cpus_1.dtb.stage2_mmu.stage2_tlb.domain_faults            0                       # Number of TLB faults due to domain restrictions
system.switch_cpus_1.dtb.stage2_mmu.stage2_tlb.flush_entries            0                       # Number of entries that have been flushed from TLB
system.switch_cpus_1.dtb.stage2_mmu.stage2_tlb.flush_tlb            0                       # Number of times complete TLB was flushed
system.switch_cpus_1.dtb.stage2_mmu.stage2_tlb.flush_tlb_asid            0                       # Number of times TLB was flushed by ASID
system.switch_cpus_1.dtb.stage2_mmu.stage2_tlb.flush_tlb_mva            0                       # Number of times TLB was flushed by MVA
system.switch_cpus_1.dtb.stage2_mmu.stage2_tlb.flush_tlb_mva_asid            0                       # Number of times TLB was flushed by MVA & ASID
system.switch_cpus_1.dtb.stage2_mmu.stage2_tlb.hits            0                       # DTB hits
system.switch_cpus_1.dtb.stage2_mmu.stage2_tlb.inst_accesses            0                       # ITB inst accesses
system.switch_cpus_1.dtb.stage2_mmu.stage2_tlb.inst_hits            0                       # ITB inst hits
system.switch_cpus_1.dtb.stage2_mmu.stage2_tlb.inst_misses            0                       # ITB inst misses
system.switch_cpus_1.dtb.stage2_mmu.stage2_tlb.misses            0                       # DTB misses
system.switch_cpus_1.dtb.stage2_mmu.stage2_tlb.perms_faults            0                       # Number of TLB faults due to permissions restrictions
system.switch_cpus_1.dtb.stage2_mmu.stage2_tlb.prefetch_faults            0                       # Number of TLB faults due to prefetch
system.switch_cpus_1.dtb.stage2_mmu.stage2_tlb.read_accesses            0                       # DTB read accesses
system.switch_cpus_1.dtb.stage2_mmu.stage2_tlb.read_hits            0                       # DTB read hits
system.switch_cpus_1.dtb.stage2_mmu.stage2_tlb.read_misses            0                       # DTB read misses
system.switch_cpus_1.dtb.stage2_mmu.stage2_tlb.walker.walkRequestOrigin_Requested::Data            0                       # Table walker requests started/completed, data/inst
system.switch_cpus_1.dtb.stage2_mmu.stage2_tlb.walker.walkRequestOrigin_Requested::Inst            0                       # Table walker requests started/completed, data/inst
system.switch_cpus_1.dtb.stage2_mmu.stage2_tlb.walker.walkRequestOrigin_Requested::total            0                       # Table walker requests started/completed, data/inst
system.switch_cpus_1.dtb.stage2_mmu.stage2_tlb.walker.walkRequestOrigin_Completed::Data            0                       # Table walker requests started/completed, data/inst
system.switch_cpus_1.dtb.stage2_mmu.stage2_tlb.walker.walkRequestOrigin_Completed::Inst            0                       # Table walker requests started/completed, data/inst
system.switch_cpus_1.dtb.stage2_mmu.stage2_tlb.walker.walkRequestOrigin_Completed::total            0                       # Table walker requests started/completed, data/inst
system.switch_cpus_1.dtb.stage2_mmu.stage2_tlb.walker.walkRequestOrigin::total            0                       # Table walker requests started/completed, data/inst
system.switch_cpus_1.dtb.stage2_mmu.stage2_tlb.walker.walks            0                       # Table walker walks requested
system.switch_cpus_1.dtb.stage2_mmu.stage2_tlb.write_accesses            0                       # DTB write accesses
system.switch_cpus_1.dtb.stage2_mmu.stage2_tlb.write_hits            0                       # DTB write hits
system.switch_cpus_1.dtb.stage2_mmu.stage2_tlb.write_misses            0                       # DTB write misses
system.switch_cpus_1.dtb.walker.walkRequestOrigin_Requested::Data            0                       # Table walker requests started/completed, data/inst
system.switch_cpus_1.dtb.walker.walkRequestOrigin_Requested::Inst            0                       # Table walker requests started/completed, data/inst
system.switch_cpus_1.dtb.walker.walkRequestOrigin_Requested::total            0                       # Table walker requests started/completed, data/inst
system.switch_cpus_1.dtb.walker.walkRequestOrigin_Completed::Data            0                       # Table walker requests started/completed, data/inst
system.switch_cpus_1.dtb.walker.walkRequestOrigin_Completed::Inst            0                       # Table walker requests started/completed, data/inst
system.switch_cpus_1.dtb.walker.walkRequestOrigin_Completed::total            0                       # Table walker requests started/completed, data/inst
system.switch_cpus_1.dtb.walker.walkRequestOrigin::total            0                       # Table walker requests started/completed, data/inst
system.switch_cpus_1.dtb.walker.walks               0                       # Table walker walks requested
system.switch_cpus_1.dtb.write_accesses             0                       # DTB write accesses
system.switch_cpus_1.dtb.write_hits                 0                       # DTB write hits
system.switch_cpus_1.dtb.write_misses               0                       # DTB write misses
system.switch_cpus_1.fetch.Branches          13942414                       # Number of branches that fetch encountered
system.switch_cpus_1.fetch.CacheLines        70044111                       # Number of cache lines fetched
system.switch_cpus_1.fetch.Cycles           901987284                       # Number of cycles fetch has run and was not squashing or blocked
system.switch_cpus_1.fetch.IcacheSquashes        68352                       # Number of outstanding Icache misses that were squashed
system.switch_cpus_1.fetch.IcacheWaitRetryStallCycles           11                       # Number of stall cycles due to full MSHR
system.switch_cpus_1.fetch.Insts            971385870                       # Number of instructions fetch has processed
system.switch_cpus_1.fetch.MiscStallCycles          258                       # Number of cycles fetch has spent waiting on interrupts, or bad addresses, or out of MSHRs
system.switch_cpus_1.fetch.PendingTrapStallCycles          526                       # Number of stall cycles due to pending traps
system.switch_cpus_1.fetch.SquashCycles        589364                       # Number of cycles fetch has spent squashing
system.switch_cpus_1.fetch.branchRate        0.014328                       # Number of branch fetches per cycle
system.switch_cpus_1.fetch.icacheStallCycles     70391457                       # Number of cycles fetch is stalled on an Icache miss
system.switch_cpus_1.fetch.predictedBranches     10255946                       # Number of branches that fetch has predicted taken
system.switch_cpus_1.fetch.rate              0.998256                       # Number of inst fetches per cycle
system.switch_cpus_1.fetch.rateDist::samples    972674218                       # Number of instructions fetched each cycle (Total)
system.switch_cpus_1.fetch.rateDist::mean     1.042914                       # Number of instructions fetched each cycle (Total)
system.switch_cpus_1.fetch.rateDist::stdev     2.512332                       # Number of instructions fetched each cycle (Total)
system.switch_cpus_1.fetch.rateDist::underflows            0      0.00%      0.00% # Number of instructions fetched each cycle (Total)
system.switch_cpus_1.fetch.rateDist::0      802548392     82.51%     82.51% # Number of instructions fetched each cycle (Total)
system.switch_cpus_1.fetch.rateDist::1       17830095      1.83%     84.34% # Number of instructions fetched each cycle (Total)
system.switch_cpus_1.fetch.rateDist::2       10724722      1.10%     85.45% # Number of instructions fetched each cycle (Total)
system.switch_cpus_1.fetch.rateDist::3       10966585      1.13%     86.57% # Number of instructions fetched each cycle (Total)
system.switch_cpus_1.fetch.rateDist::4       11359407      1.17%     87.74% # Number of instructions fetched each cycle (Total)
system.switch_cpus_1.fetch.rateDist::5       11018914      1.13%     88.87% # Number of instructions fetched each cycle (Total)
system.switch_cpus_1.fetch.rateDist::6        7868359      0.81%     89.68% # Number of instructions fetched each cycle (Total)
system.switch_cpus_1.fetch.rateDist::7        8368411      0.86%     90.54% # Number of instructions fetched each cycle (Total)
system.switch_cpus_1.fetch.rateDist::8       91989333      9.46%    100.00% # Number of instructions fetched each cycle (Total)
system.switch_cpus_1.fetch.rateDist::overflows            0      0.00%    100.00% # Number of instructions fetched each cycle (Total)
system.switch_cpus_1.fetch.rateDist::min_value            0                       # Number of instructions fetched each cycle (Total)
system.switch_cpus_1.fetch.rateDist::max_value            8                       # Number of instructions fetched each cycle (Total)
system.switch_cpus_1.fetch.rateDist::total    972674218                       # Number of instructions fetched each cycle (Total)
system.switch_cpus_1.idleCycles                408744                       # Total number of cycles that the CPU has spent unscheduled due to idling
system.switch_cpus_1.iew.branchMispredicts       280390                       # Number of branch mispredicts detected at execute
system.switch_cpus_1.iew.exec_branches       13520465                       # Number of branches executed
system.switch_cpus_1.iew.exec_nop              114225                       # number of nop insts executed
system.switch_cpus_1.iew.exec_rate           1.033503                       # Inst execution rate
system.switch_cpus_1.iew.exec_refs          309031093                       # number of memory reference insts executed
system.switch_cpus_1.iew.exec_stores         96195238                       # Number of stores executed
system.switch_cpus_1.iew.exec_swp                   0                       # number of swp insts executed
system.switch_cpus_1.iew.iewBlockCycles     338851177                       # Number of cycles IEW is blocking
system.switch_cpus_1.iew.iewDispLoadInsts    209177436                       # Number of dispatched load instructions
system.switch_cpus_1.iew.iewDispNonSpecInsts            6                       # Number of dispatched non-speculative instructions
system.switch_cpus_1.iew.iewDispSquashedInsts       343582                       # Number of squashed instructions skipped by dispatch
system.switch_cpus_1.iew.iewDispStoreInsts     96383085                       # Number of dispatched store instructions
system.switch_cpus_1.iew.iewDispatchedInsts   1004240289                       # Number of instructions dispatched to IQ
system.switch_cpus_1.iew.iewExecLoadInsts    212835855                       # Number of load instructions executed
system.switch_cpus_1.iew.iewExecSquashedInsts       314289                       # Number of squashed instructions skipped in execute
system.switch_cpus_1.iew.iewExecutedInsts   1005683763                       # Number of executed instructions
system.switch_cpus_1.iew.iewIQFullEvents     11062735                       # Number of times the IQ has become full, causing a stall
system.switch_cpus_1.iew.iewIdleCycles              0                       # Number of cycles IEW is idle
system.switch_cpus_1.iew.iewLSQFullEvents     22713050                       # Number of times the LSQ has become full, causing a stall
system.switch_cpus_1.iew.iewSquashCycles       294292                       # Number of cycles IEW is squashing
system.switch_cpus_1.iew.iewUnblockCycles     46138415                       # Number of cycles IEW is unblocking
system.switch_cpus_1.iew.lsq.thread0.blockedLoads            0                       # Number of blocked loads due to partial load-store forwarding
system.switch_cpus_1.iew.lsq.thread0.cacheBlocked       184948                       # Number of times an access to memory failed due to the cache being blocked
system.switch_cpus_1.iew.lsq.thread0.forwLoads     24739566                       # Number of loads that had data forwarded from stores
system.switch_cpus_1.iew.lsq.thread0.ignoredResponses          760                       # Number of memory responses ignored because the instruction is squashed
system.switch_cpus_1.iew.lsq.thread0.invAddrLoads            0                       # Number of loads ignored due to an invalid address
system.switch_cpus_1.iew.lsq.thread0.invAddrSwpfs            0                       # Number of software prefetches ignored due to an invalid address
system.switch_cpus_1.iew.lsq.thread0.memOrderViolation        34630                       # Number of memory ordering violations
system.switch_cpus_1.iew.lsq.thread0.rescheduledLoads      3386801                       # Number of loads that were rescheduled
system.switch_cpus_1.iew.lsq.thread0.squashedLoads      1406616                       # Number of loads squashed
system.switch_cpus_1.iew.lsq.thread0.squashedStores       327553                       # Number of stores squashed
system.switch_cpus_1.iew.memOrderViolationEvents        34630                       # Number of memory order violations
system.switch_cpus_1.iew.predictedNotTakenIncorrect        60088                       # Number of branches that were predicted not taken incorrectly
system.switch_cpus_1.iew.predictedTakenIncorrect       220302                       # Number of branches that were predicted taken incorrectly
system.switch_cpus_1.iew.wb_consumers      1181163307                       # num instructions consuming a value
system.switch_cpus_1.iew.wb_count          1001180712                       # cumulative count of insts written-back
system.switch_cpus_1.iew.wb_fanout           0.653192                       # average fanout of values written-back
system.switch_cpus_1.iew.wb_producers       771526331                       # num instructions producing a value
system.switch_cpus_1.iew.wb_rate             1.028875                       # insts written-back per cycle
system.switch_cpus_1.iew.wb_sent           1001239839                       # cumulative count of insts sent to commit
system.switch_cpus_1.int_regfile_reads      544505961                       # number of integer regfile reads
system.switch_cpus_1.int_regfile_writes     161511478                       # number of integer regfile writes
system.switch_cpus_1.ipc                     0.983139                       # IPC: Instructions Per Cycle
system.switch_cpus_1.ipc_total               0.983139                       # IPC: Total IPC of All Threads
system.switch_cpus_1.iq.FU_type_0::No_OpClass           51      0.00%      0.00% # Type of FU issued
system.switch_cpus_1.iq.FU_type_0::IntAlu    157928478     15.70%     15.70% # Type of FU issued
system.switch_cpus_1.iq.FU_type_0::IntMult      1938239      0.19%     15.89% # Type of FU issued
system.switch_cpus_1.iq.FU_type_0::IntDiv           81      0.00%     15.89% # Type of FU issued
system.switch_cpus_1.iq.FU_type_0::FloatAdd    111551308     11.09%     26.98% # Type of FU issued
system.switch_cpus_1.iq.FU_type_0::FloatCmp       461684      0.05%     27.03% # Type of FU issued
system.switch_cpus_1.iq.FU_type_0::FloatCvt      7757489      0.77%     27.80% # Type of FU issued
[...]
system.cpu.dcache.ReadReq_hits::.cpu.data    217157563                       # number of ReadReq hits
system.cpu.dcache.ReadReq_hits::.switch_cpus.data     17489773                       # number of ReadReq hits
system.cpu.dcache.ReadReq_hits::.switch_cpus_1.data    150342571                       # number of ReadReq hits
system.cpu.dcache.ReadReq_hits::total       384989907                       # number of ReadReq hits
system.cpu.dcache.ReadReq_misses::.cpu.data     10582587                       # number of ReadReq misses
system.cpu.dcache.ReadReq_misses::.switch_cpus.data      1363488                       # number of ReadReq misses
system.cpu.dcache.ReadReq_misses::.switch_cpus_1.data     34330499                       # number of ReadReq misses
system.cpu.dcache.ReadReq_misses::total      46276574                       # number of ReadReq misses
system.cpu.dcache.ReadReq_miss_latency::.switch_cpus.data  27302635000                       # number of ReadReq miss cycles
system.cpu.dcache.ReadReq_miss_latency::.switch_cpus_1.data 1330226065500                       # number of ReadReq miss cycles
system.cpu.dcache.ReadReq_miss_latency::total 1357528700500                       # number of ReadReq miss cycles
system.cpu.dcache.ReadReq_accesses::.cpu.data    227740150                       # number of ReadReq accesses(hits+misses)
system.cpu.dcache.ReadReq_accesses::.switch_cpus.data     18853261                       # number of ReadReq accesses(hits+misses)
system.cpu.dcache.ReadReq_accesses::.switch_cpus_1.data    184673070                       # number of ReadReq accesses(hits+misses)
system.cpu.dcache.ReadReq_accesses::total    431266481                       # number of ReadReq accesses(hits+misses)
system.cpu.dcache.ReadReq_miss_rate::.cpu.data     0.046468                       # miss rate for ReadReq accesses
system.cpu.dcache.ReadReq_miss_rate::.switch_cpus.data     0.072321                       # miss rate for ReadReq accesses
system.cpu.dcache.ReadReq_miss_rate::.switch_cpus_1.data     0.185899                       # miss rate for ReadReq accesses
system.cpu.dcache.ReadReq_miss_rate::total     0.107304                       # miss rate for ReadReq accesses
system.cpu.dcache.ReadReq_avg_miss_latency::.switch_cpus.data 20024.110957                       # average ReadReq miss latency
system.cpu.dcache.ReadReq_avg_miss_latency::.switch_cpus_1.data 38747.647260                       # average ReadReq miss latency
system.cpu.dcache.ReadReq_avg_miss_latency::total 29335.116737                       # average ReadReq miss latency
system.cpu.dcache.ReadReq_mshr_hits::.switch_cpus_1.data     25665216                       # number of ReadReq MSHR hits
system.cpu.dcache.ReadReq_mshr_hits::total     25665216                       # number of ReadReq MSHR hits
system.cpu.dcache.ReadReq_mshr_misses::.switch_cpus.data      1363488                       # number of ReadReq MSHR misses
system.cpu.dcache.ReadReq_mshr_misses::.switch_cpus_1.data      8665283                       # number of ReadReq MSHR misses
system.cpu.dcache.ReadReq_mshr_misses::total     10028771                       # number of ReadReq MSHR misses
system.cpu.dcache.ReadReq_mshr_miss_latency::.switch_cpus.data  25939147000                       # number of ReadReq MSHR miss cycles
system.cpu.dcache.ReadReq_mshr_miss_latency::.switch_cpus_1.data 363664811000                       # number of ReadReq MSHR miss cycles
system.cpu.dcache.ReadReq_mshr_miss_latency::total 389603958000                       # number of ReadReq MSHR miss cycles
system.cpu.dcache.ReadReq_mshr_miss_rate::.switch_cpus.data     0.072321                       # mshr miss rate for ReadReq accesses
system.cpu.dcache.ReadReq_mshr_miss_rate::.switch_cpus_1.data     0.046922                       # mshr miss rate for ReadReq accesses
system.cpu.dcache.ReadReq_mshr_miss_rate::total     0.023254                       # mshr miss rate for ReadReq accesses
system.cpu.dcache.ReadReq_avg_mshr_miss_latency::.switch_cpus.data 19024.110957                       # average ReadReq mshr miss latency
system.cpu.dcache.ReadReq_avg_mshr_miss_latency::.switch_cpus_1.data 41968.024703                       # average ReadReq mshr miss latency
system.cpu.dcache.ReadReq_avg_mshr_miss_latency::total 38848.624423                       # average ReadReq mshr miss latency
system.cpu.dcache.WriteReq_hits::.cpu.data    141640719                       # number of WriteReq hits
system.cpu.dcache.WriteReq_hits::.switch_cpus.data      6255082                       # number of WriteReq hits
system.cpu.dcache.WriteReq_hits::.switch_cpus_1.data     93668562                       # number of WriteReq hits
system.cpu.dcache.WriteReq_hits::total      241564363                       # number of WriteReq hits
system.cpu.dcache.WriteReq_misses::.cpu.data       643400                       # number of WriteReq misses
system.cpu.dcache.WriteReq_misses::.switch_cpus.data        56050                       # number of WriteReq misses
system.cpu.dcache.WriteReq_misses::.switch_cpus_1.data      2887136                       # number of WriteReq misses
system.cpu.dcache.WriteReq_misses::total      3586586                       # number of WriteReq misses
system.cpu.dcache.WriteReq_miss_latency::.switch_cpus.data   2010464500                       # number of WriteReq miss cycles
system.cpu.dcache.WriteReq_miss_latency::.switch_cpus_1.data 208006326558                       # number of WriteReq miss cycles
system.cpu.dcache.WriteReq_miss_latency::total 210016791058                       # number of WriteReq miss cycles
system.cpu.dcache.WriteReq_accesses::.cpu.data    142284119                       # number of WriteReq accesses(hits+misses)
system.cpu.dcache.WriteReq_accesses::.switch_cpus.data      6311132                       # number of WriteReq accesses(hits+misses)
system.cpu.dcache.WriteReq_accesses::.switch_cpus_1.data     96555698                       # number of WriteReq accesses(hits+misses)
system.cpu.dcache.WriteReq_accesses::total    245150949                       # number of WriteReq accesses(hits+misses)
system.cpu.dcache.WriteReq_miss_rate::.cpu.data     0.004522                       # miss rate for WriteReq accesses
system.cpu.dcache.WriteReq_miss_rate::.switch_cpus.data     0.008881                       # miss rate for WriteReq accesses
system.cpu.dcache.WriteReq_miss_rate::.switch_cpus_1.data     0.029901                       # miss rate for WriteReq accesses
system.cpu.dcache.WriteReq_miss_rate::total     0.014630                       # miss rate for WriteReq accesses
system.cpu.dcache.WriteReq_avg_miss_latency::.switch_cpus.data 35869.125781                       # average WriteReq miss latency
system.cpu.dcache.WriteReq_avg_miss_latency::.switch_cpus_1.data 72045.905201                       # average WriteReq miss latency
system.cpu.dcache.WriteReq_avg_miss_latency::total 58556.184365                       # average WriteReq miss latency
system.cpu.dcache.WriteReq_mshr_hits::.switch_cpus_1.data      2616864                       # number of WriteReq MSHR hits
system.cpu.dcache.WriteReq_mshr_hits::total      2616864                       # number of WriteReq MSHR hits
system.cpu.dcache.WriteReq_mshr_misses::.switch_cpus.data        56050                       # number of WriteReq MSHR misses
system.cpu.dcache.WriteReq_mshr_misses::.switch_cpus_1.data       270272                       # number of WriteReq MSHR misses
system.cpu.dcache.WriteReq_mshr_misses::total       326322                       # number of WriteReq MSHR misses
system.cpu.dcache.WriteReq_mshr_miss_latency::.switch_cpus.data   1954414500                       # number of WriteReq MSHR miss cycles
system.cpu.dcache.WriteReq_mshr_miss_latency::.switch_cpus_1.data  23025036639                       # number of WriteReq MSHR miss cycles
system.cpu.dcache.WriteReq_mshr_miss_latency::total  24979451139                       # number of WriteReq MSHR miss cycles
system.cpu.dcache.WriteReq_mshr_miss_rate::.switch_cpus.data     0.008881                       # mshr miss rate for WriteReq accesses
system.cpu.dcache.WriteReq_mshr_miss_rate::.switch_cpus_1.data     0.002799                       # mshr miss rate for WriteReq accesses
system.cpu.dcache.WriteReq_mshr_miss_rate::total     0.001331                       # mshr miss rate for WriteReq accesses
system.cpu.dcache.WriteReq_avg_mshr_miss_latency::.switch_cpus.data 34869.125781                       # average WriteReq mshr miss latency
system.cpu.dcache.WriteReq_avg_mshr_miss_latency::.switch_cpus_1.data 85192.090335                       # average WriteReq mshr miss latency
system.cpu.dcache.WriteReq_avg_mshr_miss_latency::total 76548.474020                       # average WriteReq mshr miss latency
system.cpu.dcache.SoftPFReq_hits::.cpu.data       893863                       # number of SoftPFReq hits
system.cpu.dcache.SoftPFReq_hits::.switch_cpus.data            1                       # number of SoftPFReq hits
system.cpu.dcache.SoftPFReq_hits::total        893864                       # number of SoftPFReq hits
system.cpu.dcache.SoftPFReq_misses::.cpu.data         4010                       # number of SoftPFReq misses
system.cpu.dcache.SoftPFReq_misses::total         4010                       # number of SoftPFReq misses
system.cpu.dcache.SoftPFReq_accesses::.cpu.data       897873                       # number of SoftPFReq accesses(hits+misses)
system.cpu.dcache.SoftPFReq_accesses::.switch_cpus.data            1                       # number of SoftPFReq accesses(hits+misses)
system.cpu.dcache.SoftPFReq_accesses::total       897874                       # number of SoftPFReq accesses(hits+misses)
system.cpu.dcache.SoftPFReq_miss_rate::.cpu.data     0.004466                       # miss rate for SoftPFReq accesses
system.cpu.dcache.SoftPFReq_miss_rate::total     0.004466                       # miss rate for SoftPFReq accesses
system.cpu.dcache.WriteLineReq_hits::.cpu.data          240                       # number of WriteLineReq hits
system.cpu.dcache.WriteLineReq_hits::total          240                       # number of WriteLineReq hits
system.cpu.dcache.WriteLineReq_misses::.cpu.data        49581                       # number of WriteLineReq misses
system.cpu.dcache.WriteLineReq_misses::.switch_cpus_1.data           42                       # number of WriteLineReq misses
system.cpu.dcache.WriteLineReq_misses::total        49623                       # number of WriteLineReq misses
system.cpu.dcache.WriteLineReq_miss_latency::.switch_cpus_1.data      1355466                       # number of WriteLineReq miss cycles
system.cpu.dcache.WriteLineReq_miss_latency::total      1355466                       # number of WriteLineReq miss cycles
system.cpu.dcache.WriteLineReq_accesses::.cpu.data        49821                       # number of WriteLineReq accesses(hits+misses)
system.cpu.dcache.WriteLineReq_accesses::.switch_cpus_1.data           42                       # number of WriteLineReq accesses(hits+misses)
system.cpu.dcache.WriteLineReq_accesses::total        49863                       # number of WriteLineReq accesses(hits+misses)
system.cpu.dcache.WriteLineReq_miss_rate::.cpu.data     0.995183                       # miss rate for WriteLineReq accesses
system.cpu.dcache.WriteLineReq_miss_rate::.switch_cpus_1.data            1                       # miss rate for WriteLineReq accesses
system.cpu.dcache.WriteLineReq_miss_rate::total     0.995187                       # miss rate for WriteLineReq accesses
system.cpu.dcache.WriteLineReq_avg_miss_latency::.switch_cpus_1.data        32273                       # average WriteLineReq miss latency
system.cpu.dcache.WriteLineReq_avg_miss_latency::total    27.315277                       # average WriteLineReq miss latency
system.cpu.dcache.WriteLineReq_mshr_misses::.switch_cpus_1.data           42                       # number of WriteLineReq MSHR misses
system.cpu.dcache.WriteLineReq_mshr_misses::total           42                       # number of WriteLineReq MSHR misses
system.cpu.dcache.WriteLineReq_mshr_miss_latency::.switch_cpus_1.data      1313466                       # number of WriteLineReq MSHR miss cycles
system.cpu.dcache.WriteLineReq_mshr_miss_latency::total      1313466                       # number of WriteLineReq MSHR miss cycles
system.cpu.dcache.WriteLineReq_mshr_miss_rate::.switch_cpus_1.data            1                       # mshr miss rate for WriteLineReq accesses
system.cpu.dcache.WriteLineReq_mshr_miss_rate::total     0.000842                       # mshr miss rate for WriteLineReq accesses
system.cpu.dcache.WriteLineReq_avg_mshr_miss_latency::.switch_cpus_1.data        31273                       # average WriteLineReq mshr miss latency
system.cpu.dcache.WriteLineReq_avg_mshr_miss_latency::total        31273                       # average WriteLineReq mshr miss latency
system.cpu.dcache.LoadLockedReq_hits::.cpu.data      1677155                       # number of LoadLockedReq hits
system.cpu.dcache.LoadLockedReq_hits::.switch_cpus.data            8                       # number of LoadLockedReq hits
system.cpu.dcache.LoadLockedReq_hits::total      1677163                       # number of LoadLockedReq hits
system.cpu.dcache.LoadLockedReq_misses::.cpu.data           24                       # number of LoadLockedReq misses
system.cpu.dcache.LoadLockedReq_misses::.switch_cpus.data            4                       # number of LoadLockedReq misses
system.cpu.dcache.LoadLockedReq_misses::total           28                       # number of LoadLockedReq misses
system.cpu.dcache.LoadLockedReq_miss_latency::.switch_cpus.data       288000                       # number of LoadLockedReq miss cycles
system.cpu.dcache.LoadLockedReq_miss_latency::total       288000                       # number of LoadLockedReq miss cycles
system.cpu.dcache.LoadLockedReq_accesses::.cpu.data      1677179                       # number of LoadLockedReq accesses(hits+misses)
system.cpu.dcache.LoadLockedReq_accesses::.switch_cpus.data           12                       # number of LoadLockedReq accesses(hits+misses)
system.cpu.dcache.LoadLockedReq_accesses::total      1677191                       # number of LoadLockedReq accesses(hits+misses)
system.cpu.dcache.LoadLockedReq_miss_rate::.cpu.data     0.000014                       # miss rate for LoadLockedReq accesses
system.cpu.dcache.LoadLockedReq_miss_rate::.switch_cpus.data     0.333333                       # miss rate for LoadLockedReq accesses
system.cpu.dcache.LoadLockedReq_miss_rate::total     0.000017                       # miss rate for LoadLockedReq accesses
system.cpu.dcache.LoadLockedReq_avg_miss_latency::.switch_cpus.data        72000                       # average LoadLockedReq miss latency
system.cpu.dcache.LoadLockedReq_avg_miss_latency::total 10285.714286                       # average LoadLockedReq miss latency
system.cpu.dcache.LoadLockedReq_mshr_misses::.switch_cpus.data            4                       # number of LoadLockedReq MSHR misses
system.cpu.dcache.LoadLockedReq_mshr_misses::total            4                       # number of LoadLockedReq MSHR misses
system.cpu.dcache.LoadLockedReq_mshr_miss_latency::.switch_cpus.data       284000                       # number of LoadLockedReq MSHR miss cycles
system.cpu.dcache.LoadLockedReq_mshr_miss_latency::total       284000                       # number of LoadLockedReq MSHR miss cycles
system.cpu.dcache.LoadLockedReq_mshr_miss_rate::.switch_cpus.data     0.333333                       # mshr miss rate for LoadLockedReq accesses
system.cpu.dcache.LoadLockedReq_mshr_miss_rate::total     0.000002                       # mshr miss rate for LoadLockedReq accesses
system.cpu.dcache.LoadLockedReq_avg_mshr_miss_latency::.switch_cpus.data        71000                       # average LoadLockedReq mshr miss latency
system.cpu.dcache.LoadLockedReq_avg_mshr_miss_latency::total        71000                       # average LoadLockedReq mshr miss latency
system.cpu.dcache.StoreCondReq_hits::.cpu.data      1677179                       # number of StoreCondReq hits
system.cpu.dcache.StoreCondReq_hits::.switch_cpus.data           12                       # number of StoreCondReq hits
system.cpu.dcache.StoreCondReq_hits::total      1677191                       # number of StoreCondReq hits
system.cpu.dcache.StoreCondReq_accesses::.cpu.data      1677179                       # number of StoreCondReq accesses(hits+misses)
system.cpu.dcache.StoreCondReq_accesses::.switch_cpus.data           12                       # number of StoreCondReq accesses(hits+misses)
system.cpu.dcache.StoreCondReq_accesses::total      1677191                       # number of StoreCondReq accesses(hits+misses)
system.cpu.dcache.power_state.pwrStateResidencyTicks::UNDEFINED 1171881839000                       # Cumulative time (in ticks) in various power states
system.cpu.dcache.tags.tagsinuse           511.991928                       # Cycle average of tags in use
system.cpu.dcache.tags.total_refs           652437468                       # Total number of references to valid blocks.
system.cpu.dcache.tags.sampled_refs          21634740                       # Sample count of references to valid blocks.
system.cpu.dcache.tags.avg_refs             30.156936                       # Average number of references to valid blocks.
system.cpu.dcache.tags.warmup_cycle              1500                       # Cycle when the warmup percentage was hit.
system.cpu.dcache.tags.occ_blocks::.cpu.data   243.525271                       # Average occupied blocks per requestor
system.cpu.dcache.tags.occ_blocks::.switch_cpus.data    55.897702                       # Average occupied blocks per requestor
system.cpu.dcache.tags.occ_blocks::.switch_cpus_1.data   212.568955                       # Average occupied blocks per requestor
system.cpu.dcache.tags.occ_percent::.cpu.data     0.475635                       # Average percentage of cache occupancy
system.cpu.dcache.tags.occ_percent::.switch_cpus.data     0.109175                       # Average percentage of cache occupancy
system.cpu.dcache.tags.occ_percent::.switch_cpus_1.data     0.415174                       # Average percentage of cache occupancy
system.cpu.dcache.tags.occ_percent::total     0.999984                       # Average percentage of cache occupancy
system.cpu.dcache.tags.occ_task_id_blocks::1024          512                       # Occupied blocks per task id
system.cpu.dcache.tags.age_task_id_blocks_1024::0          166                       # Occupied blocks per task id
system.cpu.dcache.tags.age_task_id_blocks_1024::1          325                       # Occupied blocks per task id
system.cpu.dcache.tags.age_task_id_blocks_1024::2           18                       # Occupied blocks per task id
system.cpu.dcache.tags.age_task_id_blocks_1024::4            3                       # Occupied blocks per task id
system.cpu.dcache.tags.occ_task_id_percent::1024            1                       # Percentage of cache occupancy per task id
system.cpu.dcache.tags.tag_accesses        2744512936                       # Number of tag accesses
system.cpu.dcache.tags.data_accesses       2744512936                       # Number of data accesses
system.cpu.dcache.tags.power_state.pwrStateResidencyTicks::UNDEFINED 1171881839000                       # Cumulative time (in ticks) in various power states
system.cpu.power_state.numTransitions               2                       # Number of power state transitions
system.cpu.power_state.pwrStateResidencyTicks::ON 557365282500                       # Cumulative time (in ticks) in various power states
system.cpu.power_state.pwrStateResidencyTicks::OFF 614516556500                       # Cumulative time (in ticks) in various power states

---------- End Simulation Statistics   ----------
