
---------- Begin Simulation Statistics ----------
final_tick                               771375546500                       # Number of ticks from beginning of simulation (restored from checkpoints and never reset)
host_inst_rate                                 701253                       # Simulator instruction rate (inst/s)
host_mem_usage                                 858196                       # Number of bytes of host memory used
host_op_rate                                   771662                       # Simulator op (including micro ops) rate (op/s)
host_seconds                                  1793.22                       # Real time elapsed on the host
host_tick_rate                              106695645                       # Simulator tick rate (ticks/s)
sim_freq                                 1000000000000                       # Frequency of simulated ticks
sim_insts                                  1257500003                       # Number of instructions simulated
sim_ops                                    1383758466                       # Number of ops (including micro ops) simulated
sim_seconds                                  0.191329                       # Number of seconds simulated
sim_ticks                                191328644000                       # Number of ticks simulated
system.cpu.committedInsts                           0                       # Number of instructions committed
system.cpu.committedOps                             0                       # Number of ops (including micro ops) committed
system.cpu.dtb.accesses                             0                       # DTB accesses
system.cpu.dtb.align_faults                         0                       # Number of TLB faults due to alignment restrictions
system.cpu.dtb.domain_faults                        0                       # Number of TLB faults due to domain restrictions
system.cpu.dtb.flush_entries                        0                       # Number of entries that have been flushed from TLB
system.cpu.dtb.flush_tlb                            0                       # Number of times complete TLB was flushed
system.cpu.dtb.flush_tlb_asid                       0                       # Number of times TLB was flushed by ASID
system.cpu.dtb.flush_tlb_mva                        0                       # Number of times TLB was flushed by MVA
system.cpu.dtb.flush_tlb_mva_asid                   0                       # Number of times TLB was flushed by MVA & ASID
system.cpu.dtb.hits                                 0                       # DTB hits
system.cpu.dtb.inst_accesses                        0                       # ITB inst accesses
system.cpu.dtb.inst_hits                            0                       # ITB inst hits
system.cpu.dtb.inst_misses                          0                       # ITB inst misses
system.cpu.dtb.misses                               0                       # DTB misses
system.cpu.dtb.perms_faults                         0                       # Number of TLB faults due to permissions restrictions
system.cpu.dtb.prefetch_faults                      0                       # Number of TLB faults due to prefetch
system.cpu.dtb.read_accesses                        0                       # DTB read accesses
system.cpu.dtb.read_hits                            0                       # DTB read hits
system.cpu.dtb.read_misses                          0                       # DTB read misses
system.cpu.dtb.stage2_mmu.stage2_tlb.accesses            0                       # DTB accesses
system.cpu.dtb.stage2_mmu.stage2_tlb.align_faults            0                       # Number of TLB faults due to alignment restrictions
system.cpu.dtb.stage2_mmu.stage2_tlb.domain_faults            0                       # Number of TLB faults due to domain restrictions
system.cpu.dtb.stage2_mmu.stage2_tlb.flush_entries            0                       # Number of entries that have been flushed from TLB
system.cpu.dtb.stage2_mmu.stage2_tlb.flush_tlb            0                       # Number of times complete TLB was flushed
system.cpu.dtb.stage2_mmu.stage2_tlb.flush_tlb_asid            0                       # Number of times TLB was flushed by ASID
system.cpu.dtb.stage2_mmu.stage2_tlb.flush_tlb_mva            0                       # Number of times TLB was flushed by MVA
system.cpu.dtb.stage2_mmu.stage2_tlb.flush_tlb_mva_asid            0                       # Number of times TLB was flushed by MVA & ASID
system.cpu.dtb.stage2_mmu.stage2_tlb.hits            0                       # DTB hits
system.cpu.dtb.stage2_mmu.stage2_tlb.inst_accesses            0                       # ITB inst accesses
system.cpu.dtb.stage2_mmu.stage2_tlb.inst_hits            0                       # ITB inst hits
system.cpu.dtb.stage2_mmu.stage2_tlb.inst_misses            0                       # ITB inst misses
system.cpu.dtb.stage2_mmu.stage2_tlb.misses            0                       # DTB misses
system.cpu.dtb.stage2_mmu.stage2_tlb.perms_faults            0                       # Number of TLB faults due to permissions restrictions
system.cpu.dtb.stage2_mmu.stage2_tlb.prefetch_faults            0                       # Number of TLB faults due to prefetch
system.cpu.dtb.stage2_mmu.stage2_tlb.read_accesses            0                       # DTB read accesses
system.cpu.dtb.stage2_mmu.stage2_tlb.read_hits            0                       # DTB read hits
system.cpu.dtb.stage2_mmu.stage2_tlb.read_misses            0                       # DTB read misses
system.cpu.dtb.stage2_mmu.stage2_tlb.walker.walkRequestOrigin_Requested::Data            0                       # Table walker requests started/completed, data/inst
system.cpu.dtb.stage2_mmu.stage2_tlb.walker.walkRequestOrigin_Requested::Inst            0                       # Table walker requests started/completed, data/inst
system.cpu.dtb.stage2_mmu.stage2_tlb.walker.walkRequestOrigin_Requested::total            0                       # Table walker requests started/completed, data/inst
system.cpu.dtb.stage2_mmu.stage2_tlb.walker.walkRequestOrigin_Completed::Data            0                       # Table walker requests started/completed, data/inst
system.cpu.dtb.stage2_mmu.stage2_tlb.walker.walkRequestOrigin_Completed::Inst            0                       # Table walker requests started/completed, data/inst
system.cpu.dtb.stage2_mmu.stage2_tlb.walker.walkRequestOrigin_Completed::total            0                       # Table walker requests started/completed, data/inst
system.cpu.dtb.stage2_mmu.stage2_tlb.walker.walkRequestOrigin::total            0                       # Table walker requests started/completed, data/inst
system.cpu.dtb.stage2_mmu.stage2_tlb.walker.walks            0                       # Table walker walks requested
system.cpu.dtb.stage2_mmu.stage2_tlb.write_accesses            0                       # DTB write accesses
system.cpu.dtb.stage2_mmu.stage2_tlb.write_hits            0                       # DTB write hits
system.cpu.dtb.stage2_mmu.stage2_tlb.write_misses            0                       # DTB write misses
system.cpu.dtb.walker.walkRequestOrigin_Requested::Data            0                       # Table walker requests started/completed, data/inst
system.cpu.dtb.walker.walkRequestOrigin_Requested::Inst            0                       # Table walker requests started/completed, data/inst
system.cpu.dtb.walker.walkRequestOrigin_Requested::total            0                       # Table walker requests started/completed, data/inst
system.cpu.dtb.walker.walkRequestOrigin_Completed::Data            0                       # Table walker requests started/completed, data/inst
system.cpu.dtb.walker.walkRequestOrigin_Completed::Inst            0                       # Table walker requests started/completed, data/inst
system.cpu.dtb.walker.walkRequestOrigin_Completed::total            0                       # Table walker requests started/completed, data/inst
system.cpu.dtb.walker.walkRequestOrigin::total            0                       # Table walker requests started/completed, data/inst
system.cpu.dtb.walker.walks                         0                       # Table walker walks requested
system.cpu.dtb.write_accesses                       0                       # DTB write accesses
system.cpu.dtb.write_hits                           0                       # DTB write hits
system.cpu.dtb.write_misses                         0                       # DTB write misses
system.cpu.idle_fraction                            0                       # Percentage of idle cycles
system.cpu.itb.accesses                             0                       # DTB accesses
system.cpu.itb.align_faults                         0                       # Number of TLB faults due to alignment restrictions
system.cpu.itb.domain_faults                        0                       # Number of TLB faults due to domain restrictions
system.cpu.itb.flush_entries                        0                       # Number of entries that have been flushed from TLB
system.cpu.itb.flush_tlb                            0                       # Number of times complete TLB was flushed
system.cpu.itb.flush_tlb_asid                       0                       # Number of times TLB was flushed by ASID
system.cpu.itb.flush_tlb_mva                        0                       # Number of times TLB was flushed by MVA
system.cpu.itb.flush_tlb_mva_asid                   0                       # Number of times TLB was flushed by MVA & ASID
system.cpu.itb.hits                                 0                       # DTB hits
system.cpu.itb.inst_accesses                        0                       # ITB inst accesses
system.cpu.itb.inst_hits                            0                       # ITB inst hits
system.cpu.itb.inst_misses                          0                       # ITB inst misses
system.cpu.itb.misses                               0                       # DTB misses
system.cpu.itb.perms_faults                         0                       # Number of TLB faults due to permissions restrictions
system.cpu.itb.prefetch_faults                      0                       # Number of TLB faults due to prefetch
system.cpu.itb.read_accesses                        0                       # DTB read accesses
system.cpu.itb.read_hits                            0                       # DTB read hits
system.cpu.itb.read_misses                          0                       # DTB read misses
system.cpu.itb.stage2_mmu.stage2_tlb.accesses            0                       # DTB accesses
system.cpu.itb.stage2_mmu.stage2_tlb.align_faults            0                       # Number of TLB faults due to alignment restrictions
system.cpu.itb.stage2_mmu.stage2_tlb.domain_faults            0                       # Number of TLB faults due to domain restrictions
system.cpu.itb.stage2_mmu.stage2_tlb.flush_entries            0                       # Number of entries that have been flushed from TLB
system.cpu.itb.stage2_mmu.stage2_tlb.flush_tlb            0                       # Number of times complete TLB was flushed
system.cpu.itb.stage2_mmu.stage2_tlb.flush_tlb_asid            0                       # Number of times TLB was flushed by ASID
system.cpu.itb.stage2_mmu.stage2_tlb.flush_tlb_mva            0                       # Number of times TLB was flushed by MVA
system.cpu.itb.stage2_mmu.stage2_tlb.flush_tlb_mva_asid            0                       # Number of times TLB was flushed by MVA & ASID
system.cpu.itb.stage2_mmu.stage2_tlb.hits            0                       # DTB hits
system.cpu.itb.stage2_mmu.stage2_tlb.inst_accesses            0                       # ITB inst accesses
system.cpu.itb.stage2_mmu.stage2_tlb.inst_hits            0                       # ITB inst hits
system.cpu.itb.stage2_mmu.stage2_tlb.inst_misses            0                       # ITB inst misses
system.cpu.itb.stage2_mmu.stage2_tlb.misses            0                       # DTB misses
system.cpu.itb.stage2_mmu.stage2_tlb.perms_faults            0                       # Number of TLB faults due to permissions restrictions
system.cpu.itb.stage2_mmu.stage2_tlb.prefetch_faults            0                       # Number of TLB faults due to prefetch
system.cpu.itb.stage2_mmu.stage2_tlb.read_accesses            0                       # DTB read accesses
system.cpu.itb.stage2_mmu.stage2_tlb.read_hits            0                       # DTB read hits
system.cpu.itb.stage2_mmu.stage2_tlb.read_misses            0                       # DTB read misses
system.cpu.itb.stage2_mmu.stage2_tlb.walker.walkRequestOrigin_Requested::Data            0                       # Table walker requests started/completed, data/inst
system.cpu.itb.stage2_mmu.stage2_tlb.walker.walkRequestOrigin_Requested::Inst            0                       # Table walker requests started/completed, data/inst
system.cpu.itb.stage2_mmu.stage2_tlb.walker.walkRequestOrigin_Requested::total            0                       # Table walker requests started/completed, data/inst
system.cpu.itb.stage2_mmu.stage2_tlb.walker.walkRequestOrigin_Completed::Data            0                       # Table walker requests started/completed, data/inst
system.cpu.itb.stage2_mmu.stage2_tlb.walker.walkRequestOrigin_Completed::Inst            0                       # Table walker requests started/completed, data/inst
system.cpu.itb.stage2_mmu.stage2_tlb.walker.walkRequestOrigin_Completed::total            0                       # Table walker requests started/completed, data/inst
system.cpu.itb.stage2_mmu.stage2_tlb.walker.walkRequestOrigin::total            0                       # Table walker requests started/completed, data/inst
system.cpu.itb.stage2_mmu.stage2_tlb.walker.walks            0                       # Table walker walks requested
system.cpu.itb.stage2_mmu.stage2_tlb.write_accesses            0                       # DTB write accesses
system.cpu.itb.stage2_mmu.stage2_tlb.write_hits            0                       # DTB write hits
system.cpu.itb.stage2_mmu.stage2_tlb.write_misses            0                       # DTB write misses
system.cpu.itb.walker.walkRequestOrigin_Requested::Data            0                       # Table walker requests started/completed, data/inst
system.cpu.itb.walker.walkRequestOrigin_Requested::Inst            0                       # Table walker requests started/completed, data/inst
system.cpu.itb.walker.walkRequestOrigin_Requested::total            0                       # Table walker requests started/completed, data/inst
system.cpu.itb.walker.walkRequestOrigin_Completed::Data            0                       # Table walker requests started/completed, data/inst
system.cpu.itb.walker.walkRequestOrigin_Completed::Inst            0                       # Table walker requests started/completed, data/inst
system.cpu.itb.walker.walkRequestOrigin_Completed::total            0                       # Table walker requests started/completed, data/inst
system.cpu.itb.walker.walkRequestOrigin::total            0                       # Table walker requests started/completed, data/inst
system.cpu.itb.walker.walks                         0                       # Table walker walks requested
system.cpu.itb.write_accesses                       0                       # DTB write accesses
system.cpu.itb.write_hits                           0                       # DTB write hits
system.cpu.itb.write_misses                         0                       # DTB write misses
system.cpu.not_idle_fraction                        1                       # Percentage of non-idle cycles
system.cpu.numCycles                                0                       # number of cpu cycles simulated
system.cpu.numWorkItemsCompleted                    0                       # number of work items this cpu completed
system.cpu.numWorkItemsStarted                      0                       # number of work items this cpu started
system.cpu.num_busy_cycles                          0                       # Number of busy cycles
system.cpu.num_conditional_control_insts            0                       # number of instructions that are conditional controls
system.cpu.num_fp_alu_accesses                      0                       # Number of float alu accesses
system.cpu.num_fp_insts                             0                       # number of float instructions
system.cpu.num_fp_register_reads                    0                       # number of times the floating registers were read
system.cpu.num_fp_register_writes                   0                       # number of times the floating registers were written
system.cpu.num_func_calls                           0                       # number of times a function call or return occured
system.cpu.num_idle_cycles                          0                       # Number of idle cycles
system.cpu.num_int_alu_accesses                     0                       # Number of integer alu accesses
system.cpu.num_int_insts                            0                       # number of integer instructions
system.cpu.num_int_register_reads                   0                       # number of times the integer registers were read
system.cpu.num_int_register_writes                  0                       # number of times the integer registers were written
system.cpu.num_load_insts                           0                       # Number of load instructions
system.cpu.num_mem_refs                             0                       # number of memory refs
system.cpu.num_store_insts                          0                       # Number of store instructions
system.cpu.num_vec_alu_accesses                     0                       # Number of vector alu accesses
system.cpu.num_vec_insts                            0                       # number of vector instructions
system.cpu.num_vec_register_reads                   0                       # number of times the vector registers were read
system.cpu.num_vec_register_writes                  0                       # number of times the vector registers were written
system.cpu.op_class::No_OpClass                     0                       # Class of executed instruction
system.cpu.op_class::IntAlu                         0                       # Class of executed instruction
system.cpu.op_class::IntMult                        0                       # Class of executed instruction
system.cpu.op_class::IntDiv                         0                       # Class of executed instruction
system.cpu.op_class::FloatAdd                       0                       # Class of executed instruction
system.cpu.op_class::FloatCmp                       0                       # Class of executed instruction
system.cpu.op_class::FloatCvt                       0                       # Class of executed instruction
system.cpu.op_class::FloatMult                      0                       # Class of executed instruction
system.cpu.op_class::FloatMultAcc                   0                       # Class of executed instruction
system.cpu.op_class::FloatDiv                       0                       # Class of executed instruction
system.cpu.op_class::FloatMisc                      0                       # Class of executed instruction
system.cpu.op_class::FloatSqrt                      0                       # Class of executed instruction
system.cpu.op_class::SimdAdd                        0                       # Class of executed instruction
system.cpu.op_class::SimdAddAcc                     0                       # Class of executed instruction
system.cpu.op_class::SimdAlu                        0                       # Class of executed instruction
system.cpu.op_class::SimdCmp                        0                       # Class of executed instruction
system.cpu.op_class::SimdCvt                        0                       # Class of executed instruction
system.cpu.op_class::SimdMisc                       0                       # Class of executed instruction
system.cpu.op_class::SimdMult                       0                       # Class of executed instruction
system.cpu.op_class::SimdMultAcc                    0                       # Class of executed instruction
system.cpu.op_class::SimdShift                      0                       # Class of executed instruction
system.cpu.op_class::SimdShiftAcc                   0                       # Class of executed instruction
system.cpu.op_class::SimdDiv                        0                       # Class of executed instruction
system.cpu.op_class::SimdSqrt                       0                       # Class of executed instruction
system.cpu.op_class::SimdFloatAdd                   0                       # Class of executed instruction
system.cpu.op_class::SimdFloatAlu                   0                       # Class of executed instruction
system.cpu.op_class::SimdFloatCmp                   0                       # Class of executed instruction
system.cpu.op_class::SimdFloatCvt                   0                       # Class of executed instruction
system.cpu.op_class::SimdFloatDiv                   0                       # Class of executed instruction
system.cpu.op_class::SimdFloatMisc                  0                       # Class of executed instruction
system.cpu.op_class::SimdFloatMult                  0                       # Class of executed instruction
system.cpu.op_class::SimdFloatMultAcc               0                       # Class of executed instruction
system.cpu.op_class::SimdFloatSqrt                  0                       # Class of executed instruction
system.cpu.op_class::SimdReduceAdd                  0                       # Class of executed instruction
system.cpu.op_class::SimdReduceAlu                  0                       # Class of executed instruction
system.cpu.op_class::SimdReduceCmp                  0                       # Class of executed instruction
system.cpu.op_class::SimdFloatReduceAdd             0                       # Class of executed instruction
system.cpu.op_class::SimdFloatReduceCmp             0                       # Class of executed instruction
system.cpu.op_class::SimdAes                        0                       # Class of executed instruction
system.cpu.op_class::SimdAesMix                     0                       # Class of executed instruction
system.cpu.op_class::SimdSha1Hash                   0                       # Class of executed instruction
system.cpu.op_class::SimdSha1Hash2                  0                       # Class of executed instruction
system.cpu.op_class::SimdSha256Hash                 0                       # Class of executed instruction
system.cpu.op_class::SimdSha256Hash2                0                       # Class of executed instruction
system.cpu.op_class::SimdShaSigma2                  0                       # Class of executed instruction
system.cpu.op_class::SimdShaSigma3                  0                       # Class of executed instruction
system.cpu.op_class::SimdPredAlu                    0                       # Class of executed instruction
system.cpu.op_class::MemRead                        0                       # Class of executed instruction
system.cpu.op_class::MemWrite                       0                       # Class of executed instruction
system.cpu.op_class::FloatMemRead                   0                       # Class of executed instruction
system.cpu.op_class::FloatMemWrite                  0                       # Class of executed instruction
system.cpu.op_class::IprAccess                      0                       # Class of executed instruction
system.cpu.op_class::InstPrefetch                   0                       # Class of executed instruction
system.cpu.op_class::total                          0                       # Class of executed instruction
system.cpu.workload.numSyscalls                     5                       # Number of system calls
system.membus.snoop_filter.hit_multi_requests            0                       # Number of requests hitting in the snoop filter with multiple (>1) holders of the requested data.
system.membus.snoop_filter.hit_multi_snoops            0                       # Number of snoops hitting in the snoop filter with multiple (>1) holders of the requested data.
system.membus.snoop_filter.hit_single_requests      3116943                       # Number of requests hitting in the snoop filter with a single holder of the requested data.
system.membus.snoop_filter.hit_single_snoops            0                       # Number of snoops hitting in the snoop filter with a single holder of the requested data.
system.membus.snoop_filter.tot_requests       6233913                       # Total number of requests made to the snoop filter.
system.membus.snoop_filter.tot_snoops               0                       # Total number of snoops made to the snoop filter.
system.switch_cpus.committedInsts                   0                       # Number of instructions committed
system.switch_cpus.committedOps                     0                       # Number of ops (including micro ops) committed
system.switch_cpus.dtb.accesses                     0                       # DTB accesses
system.switch_cpus.dtb.align_faults                 0                       # Number of TLB faults due to alignment restrictions
system.switch_cpus.dtb.domain_faults                0                       # Number of TLB faults due to domain restrictions
system.switch_cpus.dtb.flush_entries                0                       # Number of entries that have been flushed from TLB
system.switch_cpus.dtb.flush_tlb                    0                       # Number of times complete TLB was flushed
system.switch_cpus.dtb.flush_tlb_asid               0                       # Number of times TLB was flushed by ASID
system.switch_cpus.dtb.flush_tlb_mva                0                       # Number of times TLB was flushed by MVA
system.switch_cpus.dtb.flush_tlb_mva_asid            0                       # Number of times TLB was flushed by MVA & ASID
system.switch_cpus.dtb.hits                         0                       # DTB hits
system.switch_cpus.dtb.inst_accesses                0                       # ITB inst accesses
system.switch_cpus.dtb.inst_hits                    0                       # ITB inst hits
system.switch_cpus.dtb.inst_misses                  0                       # ITB inst misses
system.switch_cpus.dtb.misses                       0                       # DTB misses
system.switch_cpus.dtb.perms_faults                 0                       # Number of TLB faults due to permissions restrictions
system.switch_cpus.dtb.prefetch_faults              0                       # Number of TLB faults due to prefetch
system.switch_cpus.dtb.read_accesses                0                       # DTB read accesses
system.switch_cpus.dtb.read_hits                    0                       # DTB read hits
system.switch_cpus.dtb.read_misses                  0                       # DTB read misses
system.switch_cpus.dtb.stage2_mmu.stage2_tlb.accesses            0                       # DTB accesses
system.switch_cpus.dtb.stage2_mmu.stage2_tlb.align_faults            0                       # Number of TLB faults due to alignment restrictions
system.switch_cpus.dtb.stage2_mmu.stage2_tlb.domain_faults            0                       # Number of TLB faults due to domain restrictions
system.switch_cpus.dtb.stage2_mmu.stage2_tlb.flush_entries            0                       # Number of entries that have been flushed from TLB
system.switch_cpus.dtb.stage2_mmu.stage2_tlb.flush_tlb            0                       # Number of times complete TLB was flushed
system.switch_cpus.dtb.stage2_mmu.stage2_tlb.flush_tlb_asid            0                       # Number of times TLB was flushed by ASID
system.switch_cpus.dtb.stage2_mmu.stage2_tlb.flush_tlb_mva            0                       # Number of times TLB was flushed by MVA
system.switch_cpus.dtb.stage2_mmu.stage2_tlb.flush_tlb_mva_asid            0                       # Number of times TLB was flushed by MVA & ASID
system.switch_cpus.dtb.stage2_mmu.stage2_tlb.hits            0                       # DTB hits
system.switch_cpus.dtb.stage2_mmu.stage2_tlb.inst_accesses            0                       # ITB inst accesses
system.switch_cpus.dtb.stage2_mmu.stage2_tlb.inst_hits            0                       # ITB inst hits
system.switch_cpus.dtb.stage2_mmu.stage2_tlb.inst_misses            0                       # ITB inst misses
system.switch_cpus.dtb.stage2_mmu.stage2_tlb.misses            0                       # DTB misses
system.switch_cpus.dtb.stage2_mmu.stage2_tlb.perms_faults            0                       # Number of TLB faults due to permissions restrictions
system.switch_cpus.dtb.stage2_mmu.stage2_tlb.prefetch_faults            0                       # Number of TLB faults due to prefetch
system.switch_cpus.dtb.stage2_mmu.stage2_tlb.read_accesses            0                       # DTB read accesses
system.switch_cpus.dtb.stage2_mmu.stage2_tlb.read_hits            0                       # DTB read hits
system.switch_cpus.dtb.stage2_mmu.stage2_tlb.read_misses            0                       # DTB read misses
system.switch_cpus.dtb.stage2_mmu.stage2_tlb.walker.walkRequestOrigin_Requested::Data            0                       # Table walker requests started/completed, data/inst
system.switch_cpus.dtb.stage2_mmu.stage2_tlb.walker.walkRequestOrigin_Requested::Inst            0                       # Table walker requests started/completed, data/inst
system.switch_cpus.dtb.stage2_mmu.stage2_tlb.walker.walkRequestOrigin_Requested::total            0                       # Table walker requests started/completed, data/inst
system.switch_cpus.dtb.stage2_mmu.stage2_tlb.walker.walkRequestOrigin_Completed::Data            0                       # Table walker requests started/completed, data/inst
system.switch_cpus.dtb.stage2_mmu.stage2_tlb.walker.walkRequestOrigin_Completed::Inst            0                       # Table walker requests started/completed, data/inst
system.switch_cpus.dtb.stage2_mmu.stage2_tlb.walker.walkRequestOrigin_Completed::total            0                       # Table walker requests started/completed, data/inst
system.switch_cpus.dtb.stage2_mmu.stage2_tlb.walker.walkRequestOrigin::total            0                       # Table walker requests started/completed, data/inst
system.switch_cpus.dtb.stage2_mmu.stage2_tlb.walker.walks            0                       # Table walker walks requested
system.switch_cpus.dtb.stage2_mmu.stage2_tlb.write_accesses            0                       # DTB write accesses
system.switch_cpus.dtb.stage2_mmu.stage2_tlb.write_hits            0                       # DTB write hits
system.switch_cpus.dtb.stage2_mmu.stage2_tlb.write_misses            0                       # DTB write misses
system.switch_cpus.dtb.walker.walkRequestOrigin_Requested::Data            0                       # Table walker requests started/completed, data/inst
system.switch_cpus.dtb.walker.walkRequestOrigin_Requested::Inst            0                       # Table walker requests started/completed, data/inst
system.switch_cpus.dtb.walker.walkRequestOrigin_Requested::total            0                       # Table walker requests started/completed, data/inst
system.switch_cpus.dtb.walker.walkRequestOrigin_Completed::Data            0                       # Table walker requests started/completed, data/inst
system.switch_cpus.dtb.walker.walkRequestOrigin_Completed::Inst            0                       # Table walker requests started/completed, data/inst
system.switch_cpus.dtb.walker.walkRequestOrigin_Completed::total            0                       # Table walker requests started/completed, data/inst
system.switch_cpus.dtb.walker.walkRequestOrigin::total            0                       # Table walker requests started/completed, data/inst
system.switch_cpus.dtb.walker.walks                 0                       # Table walker walks requested
system.switch_cpus.dtb.write_accesses               0                       # DTB write accesses
system.switch_cpus.dtb.write_hits                   0                       # DTB write hits
system.switch_cpus.dtb.write_misses                 0                       # DTB write misses
system.switch_cpus.idle_fraction                    0                       # Percentage of idle cycles
system.switch_cpus.itb.accesses                     0                       # DTB accesses
system.switch_cpus.itb.align_faults                 0                       # Number of TLB faults due to alignment restrictions
system.switch_cpus.itb.domain_faults                0                       # Number of TLB faults due to domain restrictions
system.switch_cpus.itb.flush_entries                0                       # Number of entries that have been flushed from TLB
system.switch_cpus.itb.flush_tlb                    0                       # Number of times complete TLB was flushed
system.switch_cpus.itb.flush_tlb_asid               0                       # Number of times TLB was flushed by ASID
system.switch_cpus.itb.flush_tlb_mva                0                       # Number of times TLB was flushed by MVA
system.switch_cpus.itb.flush_tlb_mva_asid            0                       # Number of times TLB was flushed by MVA & ASID
system.switch_cpus.itb.hits                         0                       # DTB hits
system.switch_cpus.itb.inst_accesses                0                       # ITB inst accesses
system.switch_cpus.itb.inst_hits                    0                       # ITB inst hits
system.switch_cpus.itb.inst_misses                  0                       # ITB inst misses
system.switch_cpus.itb.misses                       0                       # DTB misses
system.switch_cpus.itb.perms_faults                 0                       # Number of TLB faults due to permissions restrictions
system.switch_cpus.itb.prefetch_faults              0                       # Number of TLB faults due to prefetch
system.switch_cpus.itb.read_accesses                0                       # DTB read accesses
system.switch_cpus.itb.read_hits                    0                       # DTB read hits
system.switch_cpus.itb.read_misses                  0                       # DTB read misses
system.switch_cpus.itb.stage2_mmu.stage2_tlb.accesses            0                       # DTB accesses
system.switch_cpus.itb.stage2_mmu.stage2_tlb.align_faults            0                       # Number of TLB faults due to alignment restrictions
system.switch_cpus.itb.stage2_mmu.stage2_tlb.domain_faults            0                       # Number of TLB faults due to domain restrictions
system.switch_cpus.itb.stage2_mmu.stage2_tlb.flush_entries            0                       # Number of entries that have been flushed from TLB
system.switch_cpus.itb.stage2_mmu.stage2_tlb.flush_tlb            0                       # Number of times complete TLB was flushed
system.switch_cpus.itb.stage2_mmu.stage2_tlb.flush_tlb_asid            0                       # Number of times TLB was flushed by ASID
system.switch_cpus.itb.stage2_mmu.stage2_tlb.flush_tlb_mva            0                       # Number of times TLB was flushed by MVA
system.switch_cpus.itb.stage2_mmu.stage2_tlb.flush_tlb_mva_asid            0                       # Number of times TLB was flushed by MVA & ASID
system.switch_cpus.itb.stage2_mmu.stage2_tlb.hits            0                       # DTB hits
system.switch_cpus.itb.stage2_mmu.stage2_tlb.inst_accesses            0                       # ITB inst accesses
system.switch_cpus.itb.stage2_mmu.stage2_tlb.inst_hits            0                       # ITB inst hits
system.switch_cpus.itb.stage2_mmu.stage2_tlb.inst_misses            0                       # ITB inst misses
system.switch_cpus.itb.stage2_mmu.stage2_tlb.misses            0                       # DTB misses
system.switch_cpus.itb.stage2_mmu.stage2_tlb.perms_faults            0                       # Number of TLB faults due to permissions restrictions
system.switch_cpus.itb.stage2_mmu.stage2_tlb.prefetch_faults            0                       # Number of TLB faults due to prefetch
system.switch_cpus.itb.stage2_mmu.stage2_tlb.read_accesses            0                       # DTB read accesses
system.switch_cpus.itb.stage2_mmu.stage2_tlb.read_hits            0                       # DTB read hits
system.switch_cpus.itb.stage2_mmu.stage2_tlb.read_misses            0                       # DTB read misses
system.switch_cpus.itb.stage2_mmu.stage2_tlb.walker.walkRequestOrigin_Requested::Data            0                       # Table walker requests started/completed, data/inst
system.switch_cpus.itb.stage2_mmu.stage2_tlb.walker.walkRequestOrigin_Requested::Inst            0                       # Table walker requests started/completed, data/inst
system.switch_cpus.itb.stage2_mmu.stage2_tlb.walker.walkRequestOrigin_Requested::total            0                       # Table walker requests started/completed, data/inst
system.switch_cpus.itb.stage2_mmu.stage2_tlb.walker.walkRequestOrigin_Completed::Data            0                       # Table walker requests started/completed, data/inst
system.switch_cpus.itb.stage2_mmu.stage2_tlb.walker.walkRequestOrigin_Completed::Inst            0                       # Table walker requests started/completed, data/inst
system.switch_cpus.itb.stage2_mmu.stage2_tlb.walker.walkRequestOrigin_Completed::total            0                       # Table walker requests started/completed, data/inst
system.switch_cpus.itb.stage2_mmu.stage2_tlb.walker.walkRequestOrigin::total            0                       # Table walker requests started/completed, data/inst
system.switch_cpus.itb.stage2_mmu.stage2_tlb.walker.walks            0                       # Table walker walks requested
system.switch_cpus.itb.stage2_mmu.stage2_tlb.write_accesses            0                       # DTB write accesses
system.switch_cpus.itb.stage2_mmu.stage2_tlb.write_hits            0                       # DTB write hits
system.switch_cpus.itb.stage2_mmu.stage2_tlb.write_misses            0                       # DTB write misses
system.switch_cpus.itb.walker.walkRequestOrigin_Requested::Data            0                       # Table walker requests started/completed, data/inst
system.switch_cpus.itb.walker.walkRequestOrigin_Requested::Inst            0                       # Table walker requests started/completed, data/inst
system.switch_cpus.itb.walker.walkRequestOrigin_Requested::total            0                       # Table walker requests started/completed, data/inst
system.switch_cpus.itb.walker.walkRequestOrigin_Completed::Data            0                       # Table walker requests started/completed, data/inst
system.switch_cpus.itb.walker.walkRequestOrigin_Completed::Inst            0                       # Table walker requests started/completed, data/inst
system.switch_cpus.itb.walker.walkRequestOrigin_Completed::total            0                       # Table walker requests started/completed, data/inst
system.switch_cpus.itb.walker.walkRequestOrigin::total            0                       # Table walker requests started/completed, data/inst
system.switch_cpus.itb.walker.walks                 0                       # Table walker walks requested
system.switch_cpus.itb.write_accesses               0                       # DTB write accesses
system.switch_cpus.itb.write_hits                   0                       # DTB write hits
system.switch_cpus.itb.write_misses                 0                       # DTB write misses
system.switch_cpus.not_idle_fraction                1                       # Percentage of non-idle cycles
system.switch_cpus.numCycles                        0                       # number of cpu cycles simulated
system.switch_cpus.numWorkItemsCompleted            0                       # number of work items this cpu completed
system.switch_cpus.numWorkItemsStarted              0                       # number of work items this cpu started
system.switch_cpus.num_busy_cycles                  0                       # Number of busy cycles
system.switch_cpus.num_conditional_control_insts            0                       # number of instructions that are conditional controls
system.switch_cpus.num_fp_alu_accesses              0                       # Number of float alu accesses
system.switch_cpus.num_fp_insts                     0                       # number of float instructions
system.switch_cpus.num_fp_register_reads            0                       # number of times the floating registers were read
system.switch_cpus.num_fp_register_writes            0                       # number of times the floating registers were written
system.switch_cpus.num_func_calls                   0                       # number of times a function call or return occured
system.switch_cpus.num_idle_cycles                  0                       # Number of idle cycles
system.switch_cpus.num_int_alu_accesses             0                       # Number of integer alu accesses
system.switch_cpus.num_int_insts                    0                       # number of integer instructions
system.switch_cpus.num_int_register_reads            0                       # number of times the integer registers were read
system.switch_cpus.num_int_register_writes            0                       # number of times the integer registers were written
system.switch_cpus.num_load_insts                   0                       # Number of load instructions
system.switch_cpus.num_mem_refs                     0                       # number of memory refs
system.switch_cpus.num_store_insts                  0                       # Number of store instructions
system.switch_cpus.num_vec_alu_accesses             0                       # Number of vector alu accesses
system.switch_cpus.num_vec_insts                    0                       # number of vector instructions
system.switch_cpus.num_vec_register_reads            0                       # number of times the vector registers were read
system.switch_cpus.num_vec_register_writes            0                       # number of times the vector registers were written
system.switch_cpus.op_class::No_OpClass             0                       # Class of executed instruction
system.switch_cpus.op_class::IntAlu                 0                       # Class of executed instruction
system.switch_cpus.op_class::IntMult                0                       # Class of executed instruction
system.switch_cpus.op_class::IntDiv                 0                       # Class of executed instruction
system.switch_cpus.op_class::FloatAdd               0                       # Class of executed instruction
system.switch_cpus.op_class::FloatCmp               0                       # Class of executed instruction
system.switch_cpus.op_class::FloatCvt               0                       # Class of executed instruction
system.switch_cpus.op_class::FloatMult              0                       # Class of executed instruction
system.switch_cpus.op_class::FloatMultAcc            0                       # Class of executed instruction
system.switch_cpus.op_class::FloatDiv               0                       # Class of executed instruction
system.switch_cpus.op_class::FloatMisc              0                       # Class of executed instruction
system.switch_cpus.op_class::FloatSqrt              0                       # Class of executed instruction
system.switch_cpus.op_class::SimdAdd                0                       # Class of executed instruction
system.switch_cpus.op_class::SimdAddAcc             0                       # Class of executed instruction
system.switch_cpus.op_class::SimdAlu                0                       # Class of executed instruction
system.switch_cpus.op_class::SimdCmp                0                       # Class of executed instruction
system.switch_cpus.op_class::SimdCvt                0                       # Class of executed instruction
system.switch_cpus.op_class::SimdMisc               0                       # Class of executed instruction
system.switch_cpus.op_class::SimdMult               0                       # Class of executed instruction
system.switch_cpus.op_class::SimdMultAcc            0                       # Class of executed instruction
system.switch_cpus.op_class::SimdShift              0                       # Class of executed instruction
system.switch_cpus.op_class::SimdShiftAcc            0                       # Class of executed instruction
system.switch_cpus.op_class::SimdDiv                0                       # Class of executed instruction
system.switch_cpus.op_class::SimdSqrt               0                       # Class of executed instruction
system.switch_cpus.op_class::SimdFloatAdd            0                       # Class of executed instruction
system.switch_cpus.op_class::SimdFloatAlu            0                       # Class of executed instruction
system.switch_cpus.op_class::SimdFloatCmp            0                       # Class of executed instruction
system.switch_cpus.op_class::SimdFloatCvt            0                       # Class of executed instruction
system.switch_cpus.op_class::SimdFloatDiv            0                       # Class of executed instruction
system.switch_cpus.op_class::SimdFloatMisc            0                       # Class of executed instruction
system.switch_cpus.op_class::SimdFloatMult            0                       # Class of executed instruction
system.switch_cpus.op_class::SimdFloatMultAcc            0                       # Class of executed instruction
system.switch_cpus.op_class::SimdFloatSqrt            0                       # Class of executed instruction
system.switch_cpus.op_class::SimdReduceAdd            0                       # Class of executed instruction
system.switch_cpus.op_class::SimdReduceAlu            0                       # Class of executed instruction
system.switch_cpus.op_class::SimdReduceCmp            0                       # Class of executed instruction
system.switch_cpus.op_class::SimdFloatReduceAdd            0                       # Class of executed instruction
system.switch_cpus.op_class::SimdFloatReduceCmp            0                       # Class of executed instruction
system.switch_cpus.op_class::SimdAes                0                       # Class of executed instruction
system.switch_cpus.op_class::SimdAesMix             0                       # Class of executed instruction
system.switch_cpus.op_class::SimdSha1Hash            0                       # Class of executed instruction
system.switch_cpus.op_class::SimdSha1Hash2            0                       # Class of executed instruction
system.switch_cpus.op_class::SimdSha256Hash            0                       # Class of executed instruction
system.switch_cpus.op_class::SimdSha256Hash2            0                       # Class of executed instruction
system.switch_cpus.op_class::SimdShaSigma2            0                       # Class of executed instruction
system.switch_cpus.op_class::SimdShaSigma3            0                       # Class of executed instruction
system.switch_cpus.op_class::SimdPredAlu            0                       # Class of executed instruction
system.switch_cpus.op_class::MemRead                0                       # Class of executed instruction
system.switch_cpus.op_class::MemWrite               0                       # Class of executed instruction
system.switch_cpus.op_class::FloatMemRead            0                       # Class of executed instruction
system.switch_cpus.op_class::FloatMemWrite            0                       # Class of executed instruction
system.switch_cpus.op_class::IprAccess              0                       # Class of executed instruction
system.switch_cpus.op_class::InstPrefetch            0                       # Class of executed instruction
system.switch_cpus.op_class::total                  0                       # Class of executed instruction
system.switch_cpus_1.branchPred.BTBCorrect            0                       # Number of correct BTB predictions (this stat may not work properly.
system.switch_cpus_1.branchPred.BTBHitPct    99.837339                       # BTB Hit Percentage
system.switch_cpus_1.branchPred.BTBHits       8578119                       # Number of BTB hits
system.switch_cpus_1.branchPred.BTBLookups      8592095                       # Number of BTB lookups
system.switch_cpus_1.branchPred.RASInCorrect            8                       # Number of incorrect RAS predictions.
system.switch_cpus_1.branchPred.condIncorrect       724670                       # Number of conditional branches incorrect
system.switch_cpus_1.branchPred.condPredicted     12488228                       # Number of conditional branches predicted
system.switch_cpus_1.branchPred.indirectHits           71                       # Number of indirect target hits.
system.switch_cpus_1.branchPred.indirectLookups          754                       # Number of indirect predictor lookups.
system.switch_cpus_1.branchPred.indirectMisses          683                       # Number of indirect misses.
system.switch_cpus_1.branchPred.lookups      13581985                       # Number of BP lookups
system.switch_cpus_1.branchPred.usedRAS        145027                       # Number of times the RAS was used to get a target.
system.switch_cpus_1.branchPredindirectMispredicted           47                       # Number of mispredicted indirect branches.
system.switch_cpus_1.cc_regfile_reads        31806492                       # number of cc regfile reads
system.switch_cpus_1.cc_regfile_writes       33646318                       # number of cc regfile writes
system.switch_cpus_1.commit.amos                    0                       # Number of atomic instructions committed
system.switch_cpus_1.commit.branchMispredicts       724385                       # The number of times a branch was mispredicted
system.switch_cpus_1.commit.branches          7880149                       # Number of branches committed
system.switch_cpus_1.commit.bw_lim_events     20134473                       # number cycles where commit BW limit reached
system.switch_cpus_1.commit.commitNonSpecStalls           15                       # The number of times commit has been forced to stall to communicate backwards
system.switch_cpus_1.commit.commitSquashedInsts     25158625                       # The number of squashed insts skipped by commit
system.switch_cpus_1.commit.committedInsts    250163944                       # Number of instructions committed
system.switch_cpus_1.commit.committedOps    261356970                       # Number of ops (including micro ops) committed
system.switch_cpus_1.commit.committed_per_cycle::samples    378715199                       # Number of insts commited each cycle
system.switch_cpus_1.commit.committed_per_cycle::mean     0.690115                       # Number of insts commited each cycle
system.switch_cpus_1.commit.committed_per_cycle::stdev     2.027674                       # Number of insts commited each cycle
system.switch_cpus_1.commit.committed_per_cycle::underflows            0      0.00%      0.00% # Number of insts commited each cycle
system.switch_cpus_1.commit.committed_per_cycle::0    326761056     86.28%     86.28% # Number of insts commited each cycle
system.switch_cpus_1.commit.committed_per_cycle::1      9249405      2.44%     88.72% # Number of insts commited each cycle
system.switch_cpus_1.commit.committed_per_cycle::2      6519810      1.72%     90.45% # Number of insts commited each cycle
system.switch_cpus_1.commit.committed_per_cycle::3      4291963      1.13%     91.58% # Number of insts commited each cycle
system.switch_cpus_1.commit.committed_per_cycle::4      2520948      0.67%     92.24% # Number of insts commited each cycle
system.switch_cpus_1.commit.committed_per_cycle::5      3547957      0.94%     93.18% # Number of insts commited each cycle
system.switch_cpus_1.commit.committed_per_cycle::6      2534414      0.67%     93.85% # Number of insts commited each cycle
system.switch_cpus_1.commit.committed_per_cycle::7      3155173      0.83%     94.68% # Number of insts commited each cycle
system.switch_cpus_1.commit.committed_per_cycle::8     20134473      5.32%    100.00% # Number of insts commited each cycle
system.switch_cpus_1.commit.committed_per_cycle::overflows            0      0.00%    100.00% # Number of insts commited each cycle
system.switch_cpus_1.commit.committed_per_cycle::min_value            0                       # Number of insts commited each cycle
system.switch_cpus_1.commit.committed_per_cycle::max_value            8                       # Number of insts commited each cycle
system.switch_cpus_1.commit.committed_per_cycle::total    378715199                       # Number of insts commited each cycle
system.switch_cpus_1.commit.fp_insts                0                       # Number of committed floating point instructions.
system.switch_cpus_1.commit.function_calls       103584                       # Number of function calls committed.
system.switch_cpus_1.commit.int_insts       127199341                       # Number of committed integer instructions.
system.switch_cpus_1.commit.loads            56176389                       # Number of loads committed
system.switch_cpus_1.commit.membars                10                       # Number of memory barriers committed
system.switch_cpus_1.commit.op_class_0::No_OpClass            0      0.00%      0.00% # Class of committed instruction
system.switch_cpus_1.commit.op_class_0::IntAlu     53555479     20.49%     20.49% # Class of committed instruction
system.switch_cpus_1.commit.op_class_0::IntMult       762725      0.29%     20.78% # Class of committed instruction
system.switch_cpus_1.commit.op_class_0::IntDiv            9      0.00%     20.78% # Class of committed instruction
system.switch_cpus_1.commit.op_class_0::FloatAdd     27062621     10.35%     31.14% # Class of committed instruction
system.switch_cpus_1.commit.op_class_0::FloatCmp      1038679      0.40%     31.54% # Class of committed instruction
system.switch_cpus_1.commit.op_class_0::FloatCvt      1226530      0.47%     32.00% # Class of committed instruction
system.switch_cpus_1.commit.op_class_0::FloatMult     29255544     11.19%     43.20% # Class of committed instruction
system.switch_cpus_1.commit.op_class_0::FloatMultAcc     51308014     19.63%     62.83% # Class of committed instruction
system.switch_cpus_1.commit.op_class_0::FloatDiv      5775622      2.21%     65.04% # Class of committed instruction
system.switch_cpus_1.commit.op_class_0::FloatMisc      5624740      2.15%     67.19% # Class of committed instruction
system.switch_cpus_1.commit.op_class_0::FloatSqrt      5631689      2.15%     69.35% # Class of committed instruction
system.switch_cpus_1.commit.op_class_0::SimdAdd            0      0.00%     69.35% # Class of committed instruction
system.switch_cpus_1.commit.op_class_0::SimdAddAcc            0      0.00%     69.35% # Class of committed instruction
system.switch_cpus_1.commit.op_class_0::SimdAlu          744      0.00%     69.35% # Class of committed instruction
system.switch_cpus_1.commit.op_class_0::SimdCmp            0      0.00%     69.35% # Class of committed instruction
system.switch_cpus_1.commit.op_class_0::SimdCvt       219852      0.08%     69.43% # Class of committed instruction
system.switch_cpus_1.commit.op_class_0::SimdMisc        58757      0.02%     69.45% # Class of committed instruction
system.switch_cpus_1.commit.op_class_0::SimdMult            0      0.00%     69.45% # Class of committed instruction
system.switch_cpus_1.commit.op_class_0::SimdMultAcc            0      0.00%     69.45% # Class of committed instruction
system.switch_cpus_1.commit.op_class_0::SimdShift            0      0.00%     69.45% # Class of committed instruction
system.switch_cpus_1.commit.op_class_0::SimdShiftAcc            0      0.00%     69.45% # Class of committed instruction
system.switch_cpus_1.commit.op_class_0::SimdDiv            0      0.00%     69.45% # Class of committed instruction
system.switch_cpus_1.commit.op_class_0::SimdSqrt            0      0.00%     69.45% # Class of committed instruction
system.switch_cpus_1.commit.op_class_0::SimdFloatAdd         3707      0.00%     69.45% # Class of committed instruction
system.switch_cpus_1.commit.op_class_0::SimdFloatAlu            0      0.00%     69.45% # Class of committed instruction
system.switch_cpus_1.commit.op_class_0::SimdFloatCmp            0      0.00%     69.45% # Class of committed instruction
system.switch_cpus_1.commit.op_class_0::SimdFloatCvt            0      0.00%     69.45% # Class of committed instruction
system.switch_cpus_1.commit.op_class_0::SimdFloatDiv            0      0.00%     69.45% # Class of committed instruction
system.switch_cpus_1.commit.op_class_0::SimdFloatMisc            0      0.00%     69.45% # Class of committed instruction
system.switch_cpus_1.commit.op_class_0::SimdFloatMult            0      0.00%     69.45% # Class of committed instruction
system.switch_cpus_1.commit.op_class_0::SimdFloatMultAcc            0      0.00%     69.45% # Class of committed instruction
system.switch_cpus_1.commit.op_class_0::SimdFloatSqrt            0      0.00%     69.45% # Class of committed instruction
system.switch_cpus_1.commit.op_class_0::SimdReduceAdd            0      0.00%     69.45% # Class of committed instruction
system.switch_cpus_1.commit.op_class_0::SimdReduceAlu            0      0.00%     69.45% # Class of committed instruction
system.switch_cpus_1.commit.op_class_0::SimdReduceCmp            0      0.00%     69.45% # Class of committed instruction
system.switch_cpus_1.commit.op_class_0::SimdFloatReduceAdd            0      0.00%     69.45% # Class of committed instruction
system.switch_cpus_1.commit.op_class_0::SimdFloatReduceCmp            0      0.00%     69.45% # Class of committed instruction
system.switch_cpus_1.commit.op_class_0::SimdAes            0      0.00%     69.45% # Class of committed instruction
system.switch_cpus_1.commit.op_class_0::SimdAesMix            0      0.00%     69.45% # Class of committed instruction
system.switch_cpus_1.commit.op_class_0::SimdSha1Hash            0      0.00%     69.45% # Class of committed instruction
system.switch_cpus_1.commit.op_class_0::SimdSha1Hash2            0      0.00%     69.45% # Class of committed instruction
system.switch_cpus_1.commit.op_class_0::SimdSha256Hash            0      0.00%     69.45% # Class of committed instruction
system.switch_cpus_1.commit.op_class_0::SimdSha256Hash2            0      0.00%     69.45% # Class of committed instruction
system.switch_cpus_1.commit.op_class_0::SimdShaSigma2            0      0.00%     69.45% # Class of committed instruction
system.switch_cpus_1.commit.op_class_0::SimdShaSigma3            0      0.00%     69.45% # Class of committed instruction
system.switch_cpus_1.commit.op_class_0::SimdPredAlu            0      0.00%     69.45% # Class of committed instruction
system.switch_cpus_1.commit.op_class_0::MemRead     56176389     21.49%     90.95% # Class of committed instruction
system.switch_cpus_1.commit.op_class_0::MemWrite     23655869      9.05%    100.00% # Class of committed instruction
system.switch_cpus_1.commit.op_class_0::FloatMemRead            0      0.00%    100.00% # Class of committed instruction
system.switch_cpus_1.commit.op_class_0::FloatMemWrite            0      0.00%    100.00% # Class of committed instruction
system.switch_cpus_1.commit.op_class_0::IprAccess            0      0.00%    100.00% # Class of committed instruction
system.switch_cpus_1.commit.op_class_0::InstPrefetch            0      0.00%    100.00% # Class of committed instruction
system.switch_cpus_1.commit.op_class_0::total    261356970                       # Class of committed instruction
system.switch_cpus_1.commit.refs             79832258                       # Number of memory references committed
system.switch_cpus_1.commit.swp_count               0                       # Number of s/w prefetches committed
system.switch_cpus_1.commit.vec_insts       193273929                       # Number of committed Vector instructions.
system.switch_cpus_1.committedInsts         250000001                       # Number of Instructions Simulated
system.switch_cpus_1.committedOps           261193027                       # Number of Ops (including micro ops) Simulated
system.switch_cpus_1.cpi                     1.530629                       # CPI: Cycles Per Instruction
system.switch_cpus_1.cpi_total               1.530629                       # CPI: Total CPI of All Threads
system.switch_cpus_1.decode.BlockedCycles    326863628                       # Number of cycles decode is blocked
system.switch_cpus_1.decode.BranchMispred          347                       # Number of times decode detected a branch misprediction
system.switch_cpus_1.decode.BranchResolved      7671161                       # Number of times decode resolved a branch
system.switch_cpus_1.decode.DecodedInsts    292997898                       # Number of instructions handled by decode
system.switch_cpus_1.decode.IdleCycles       14388640                       # Number of cycles decode is idle
system.switch_cpus_1.decode.RunCycles        21765651                       # Number of cycles decode is running
system.switch_cpus_1.decode.SquashCycles       735586                       # Number of cycles decode is squashing
system.switch_cpus_1.decode.SquashedInsts         1248                       # Number of squashed instructions handled by decode
system.switch_cpus_1.decode.UnblockCycles     18822997                       # Number of cycles decode is unblocking
system.switch_cpus_1.dtb.accesses                   0                       # DTB accesses
system.switch_cpus_1.dtb.align_faults               0                       # Number of TLB faults due to alignment restrictions
system.switch_cpus_1.dtb.domain_faults              0                       # Number of TLB faults due to domain restrictions
system.switch_cpus_1.dtb.flush_entries              0                       # Number of entries that have been flushed from TLB
system.switch_cpus_1.dtb.flush_tlb                  6                       # Number of times complete TLB was flushed
system.switch_cpus_1.dtb.flush_tlb_asid             0                       # Number of times TLB was flushed by ASID
system.switch_cpus_1.dtb.flush_tlb_mva              0                       # Number of times TLB was flushed by MVA
system.switch_cpus_1.dtb.flush_tlb_mva_asid            0                       # Number of times TLB was flushed by MVA & ASID
system.switch_cpus_1.dtb.hits                       0                       # DTB hits
system.switch_cpus_1.dtb.inst_accesses              0                       # ITB inst accesses
system.switch_cpus_1.dtb.inst_hits                  0                       # ITB inst hits
system.switch_cpus_1.dtb.inst_misses                0                       # ITB inst misses
system.switch_cpus_1.dtb.misses                     0                       # DTB misses
system.switch_cpus_1.dtb.perms_faults               0                       # Number of TLB faults due to permissions restrictions
system.switch_cpus_1.dtb.prefetch_faults            0                       # Number of TLB faults due to prefetch
system.switch_cpus_1.dtb.read_accesses              0                       # DTB read accesses
system.switch_cpus_1.dtb.read_hits                  0                       # DTB read hits
system.switch_cpus_1.dtb.read_misses                0                       # DTB read misses
system.switch_cpus_1.dtb.stage2_mmu.stage2_tlb.accesses            0                       # DTB accesses
system.switch_cpus_1.dtb.stage2_mmu.stage2_tlb.align_faults            0                       # Number of TLB faults due to alignment restrictions
system.switch_cpus_1.dtb.stage2_mmu.stage2_tlb.domain_faults            0                       # Number of TLB faults due to domain restrictions
system.switch_cpus_1.dtb.stage2_mmu.stage2_tlb.flush_entries            0                       # Number of entries that have been flushed from TLB
system.switch_cpus_1.dtb.stage2_mmu.stage2_tlb.flush_tlb            0                       # Number of times complete TLB was flushed
system.switch_cpus_1.dtb.stage2_mmu.stage2_tlb.flush_tlb_asid            0                       # Number of times TLB was flushed by ASID
system.switch_cpus_1.dtb.stage2_mmu.stage2_tlb.flush_tlb_mva            0                       # Number of times TLB was flushed by MVA
system.switch_cpus_1.dtb.stage2_mmu.stage2_tlb.flush_tlb_mva_asid            0                       # Number of times TLB was flushed by MVA & ASID
system.switch_cpus_1.dtb.stage2_mmu.stage2_tlb.hits            0                       # DTB hits
system.switch_cpus_1.dtb.stage2_mmu.stage2_tlb.inst_accesses            0                       # ITB inst accesses
system.switch_cpus_1.dtb.stage2_mmu.stage2_tlb.inst_hits            0                       # ITB inst hits
system.switch_cpus_1.dtb.stage2_mmu.stage2_tlb.inst_misses            0                       # ITB inst misses
system.switch_cpus_1.dtb.stage2_mmu.stage2_tlb.misses            0                       # DTB misses
system.switch_cpus_1.dtb.stage2_mmu.stage2_tlb.perms_faults            0                       # Number of TLB faults due to permissions restrictions
system.switch_cpus_1.dtb.stage2_mmu.stage2_tlb.prefetch_faults            0                       # Number of TLB faults due to prefetch
system.switch_cpus_1.dtb.stage2_mmu.stage2_tlb.read_accesses            0                       # DTB read accesses
system.switch_cpus_1.dtb.stage2_mmu.stage2_tlb.read_hits            0                       # DTB read hits
system.switch_cpus_1.dtb.stage2_mmu.stage2_tlb.read_misses            0                       # DTB read misses
system.switch_cpus_1.dtb.stage2_mmu.stage2_tlb.walker.walkRequestOrigin_Requested::Data            0                       # Table walker requests started/completed, data/inst
system.switch_cpus_1.dtb.stage2_mmu.stage2_tlb.walker.walkRequestOrigin_Requested::Inst            0                       # Table walker requests started/completed, data/inst
system.switch_cpus_1.dtb.stage2_mmu.stage2_tlb.walker.walkRequestOrigin_Requested::total            0                       # Table walker requests started/completed, data/inst
system.switch_cpus_1.dtb.stage2_mmu.stage2_tlb.walker.walkRequestOrigin_Completed::Data            0                       # Table walker requests started/completed, data/inst
system.switch_cpus_1.dtb.stage2_mmu.stage2_tlb.walker.walkRequestOrigin_Completed::Inst            0                       # Table walker requests started/completed, data/inst
system.switch_cpus_1.dtb.stage2_mmu.stage2_tlb.walker.walkRequestOrigin_Completed::total            0                       # Table walker requests started/completed, data/inst
system.switch_cpus_1.dtb.stage2_mmu.stage2_tlb.walker.walkRequestOrigin::total            0                       # Table walker requests started/completed, data/inst
system.switch_cpus_1.dtb.stage2_mmu.stage2_tlb.walker.walks            0                       # Table walker walks requested
system.switch_cpus_1.dtb.stage2_mmu.stage2_tlb.write_accesses            0                       # DTB write accesses
system.switch_cpus_1.dtb.stage2_mmu.stage2_tlb.write_hits            0                       # DTB write hits
system.switch_cpus_1.dtb.stage2_mmu.stage2_tlb.write_misses            0                       # DTB write misses
system.switch_cpus_1.dtb.walker.walkRequestOrigin_Requested::Data            0                       # Table walker requests started/completed, data/inst
system.switch_cpus_1.dtb.walker.walkRequestOrigin_Requested::Inst            0                       # Table walker requests started/completed, data/inst
system.switch_cpus_1.dtb.walker.walkRequestOrigin_Requested::total            0                       # Table walker requests started/completed, data/inst
system.switch_cpus_1.dtb.walker.walkRequestOrigin_Completed::Data            0                       # Table walker requests started/completed, data/inst
system.switch_cpus_1.dtb.walker.walkRequestOrigin_Completed::Inst            0                       # Table walker requests started/completed, data/inst
system.switch_cpus_1.dtb.walker.walkRequestOrigin_Completed::total            0                       # Table walker requests started/completed, data/inst
system.switch_cpus_1.dtb.walker.walkRequestOrigin::total            0                       # Table walker requests started/completed, data/inst
system.switch_cpus_1.dtb.walker.walks               0                       # Table walker walks requested
system.switch_cpus_1.dtb.write_accesses             0                       # DTB write accesses
system.switch_cpus_1.dtb.write_hits                 0                       # DTB write hits
system.switch_cpus_1.dtb.write_misses               0                       # DTB write misses
system.switch_cpus_1.fetch.Branches          13581985                       # Number of branches that fetch encountered
system.switch_cpus_1.fetch.CacheLines        27780085                       # Number of cache lines fetched
system.switch_cpus_1.fetch.Cycles           353642660                       # Number of cycles fetch has run and was not squashing or blocked
system.switch_cpus_1.fetch.IcacheSquashes       253624                       # Number of outstanding Icache misses that were squashed
system.switch_cpus_1.fetch.IcacheWaitRetryStallCycles           26                       # Number of stall cycles due to full MSHR
system.switch_cpus_1.fetch.Insts            291678079                       # Number of instructions fetch has processed
system.switch_cpus_1.fetch.MiscStallCycles           52                       # Number of cycles fetch has spent waiting on interrupts, or bad addresses, or out of MSHRs
system.switch_cpus_1.fetch.PendingTrapStallCycles          431                       # Number of stall cycles due to pending traps
system.switch_cpus_1.fetch.SquashCycles       1471842                       # Number of cycles fetch has spent squashing
system.switch_cpus_1.fetch.branchRate        0.035494                       # Number of branch fetches per cycle
system.switch_cpus_1.fetch.icacheStallCycles     28197420                       # Number of cycles fetch is stalled on an Icache miss
system.switch_cpus_1.fetch.predictedBranches      8723217                       # Number of branches that fetch has predicted taken
system.switch_cpus_1.fetch.rate              0.762244                       # Number of inst fetches per cycle
system.switch_cpus_1.fetch.rateDist::samples    382576510                       # Number of instructions fetched each cycle (Total)
system.switch_cpus_1.fetch.rateDist::mean     0.796128                       # Number of instructions fetched each cycle (Total)
system.switch_cpus_1.fetch.rateDist::stdev     2.201437                       # Number of instructions fetched each cycle (Total)
system.switch_cpus_1.fetch.rateDist::underflows            0      0.00%      0.00% # Number of instructions fetched each cycle (Total)
system.switch_cpus_1.fetch.rateDist::0      327523914     85.61%     85.61% # Number of instructions fetched each cycle (Total)
system.switch_cpus_1.fetch.rateDist::1        6662268      1.74%     87.35% # Number of instructions fetched each cycle (Total)
system.switch_cpus_1.fetch.rateDist::2        6316115      1.65%     89.00% # Number of instructions fetched each cycle (Total)
system.switch_cpus_1.fetch.rateDist::3        3954534      1.03%     90.04% # Number of instructions fetched each cycle (Total)
system.switch_cpus_1.fetch.rateDist::4        3175061      0.83%     90.87% # Number of instructions fetched each cycle (Total)
system.switch_cpus_1.fetch.rateDist::5        3318517      0.87%     91.73% # Number of instructions fetched each cycle (Total)
system.switch_cpus_1.fetch.rateDist::6        2210583      0.58%     92.31% # Number of instructions fetched each cycle (Total)
system.switch_cpus_1.fetch.rateDist::7        4458779      1.17%     93.48% # Number of instructions fetched each cycle (Total)
system.switch_cpus_1.fetch.rateDist::8       24956739      6.52%    100.00% # Number of instructions fetched each cycle (Total)
system.switch_cpus_1.fetch.rateDist::overflows            0      0.00%    100.00% # Number of instructions fetched each cycle (Total)
system.switch_cpus_1.fetch.rateDist::min_value            0                       # Number of instructions fetched each cycle (Total)
system.switch_cpus_1.fetch.rateDist::max_value            8                       # Number of instructions fetched each cycle (Total)
system.switch_cpus_1.fetch.rateDist::total    382576510                       # Number of instructions fetched each cycle (Total)
system.switch_cpus_1.idleCycles                 80778                       # Total number of cycles that the CPU has spent unscheduled due to idling
system.switch_cpus_1.iew.branchMispredicts       770590                       # Number of branch mispredicts detected at execute
system.switch_cpus_1.iew.exec_branches        9735044                       # Number of branches executed
system.switch_cpus_1.iew.exec_nop              249992                       # number of nop insts executed
system.switch_cpus_1.iew.exec_rate           0.732294                       # Inst execution rate
system.switch_cpus_1.iew.exec_refs           89242498                       # number of memory reference insts executed
system.switch_cpus_1.iew.exec_stores         24184682                       # Number of stores executed
system.switch_cpus_1.iew.exec_swp                   0                       # number of swp insts executed
system.switch_cpus_1.iew.iewBlockCycles     164717992                       # Number of cycles IEW is blocking
system.switch_cpus_1.iew.iewDispLoadInsts     63019898                       # Number of dispatched load instructions
system.switch_cpus_1.iew.iewDispNonSpecInsts           22                       # Number of dispatched non-speculative instructions
system.switch_cpus_1.iew.iewDispSquashedInsts       102789                       # Number of squashed instructions skipped by dispatch
system.switch_cpus_1.iew.iewDispStoreInsts     24676016                       # Number of dispatched store instructions
system.switch_cpus_1.iew.iewDispatchedInsts    286253044                       # Number of instructions dispatched to IQ
system.switch_cpus_1.iew.iewExecLoadInsts     65057816                       # Number of load instructions executed
system.switch_cpus_1.iew.iewExecSquashedInsts       918496                       # Number of squashed instructions skipped in execute
system.switch_cpus_1.iew.iewExecutedInsts    280217737                       # Number of executed instructions
system.switch_cpus_1.iew.iewIQFullEvents      2854888                       # Number of times the IQ has become full, causing a stall
system.switch_cpus_1.iew.iewIdleCycles              0                       # Number of cycles IEW is idle
system.switch_cpus_1.iew.iewLSQFullEvents     19895020                       # Number of times the LSQ has become full, causing a stall
system.switch_cpus_1.iew.iewSquashCycles       735586                       # Number of cycles IEW is squashing
system.switch_cpus_1.iew.iewUnblockCycles     25574463                       # Number of cycles IEW is unblocking
system.switch_cpus_1.iew.lsq.thread0.blockedLoads            0                       # Number of blocked loads due to partial load-store forwarding
system.switch_cpus_1.iew.lsq.thread0.cacheBlocked       469831                       # Number of times an access to memory failed due to the cache being blocked
system.switch_cpus_1.iew.lsq.thread0.forwLoads      6498833                       # Number of loads that had data forwarded from stores
system.switch_cpus_1.iew.lsq.thread0.ignoredResponses         3286                       # Number of memory responses ignored because the instruction is squashed
system.switch_cpus_1.iew.lsq.thread0.invAddrLoads            0                       # Number of loads ignored due to an invalid address
system.switch_cpus_1.iew.lsq.thread0.invAddrSwpfs            0                       # Number of software prefetches ignored due to an invalid address
system.switch_cpus_1.iew.lsq.thread0.memOrderViolation        15206                       # Number of memory ordering violations
system.switch_cpus_1.iew.lsq.thread0.rescheduledLoads       907050                       # Number of loads that were rescheduled
system.switch_cpus_1.iew.lsq.thread0.squashedLoads      6843477                       # Number of loads squashed
system.switch_cpus_1.iew.lsq.thread0.squashedStores      1020134                       # Number of stores squashed
system.switch_cpus_1.iew.memOrderViolationEvents        15206                       # Number of memory order violations
system.switch_cpus_1.iew.predictedNotTakenIncorrect       337066                       # Number of branches that were predicted not taken incorrectly
system.switch_cpus_1.iew.predictedTakenIncorrect       433524                       # Number of branches that were predicted taken incorrectly
system.switch_cpus_1.iew.wb_consumers       325290439                       # num instructions consuming a value
system.switch_cpus_1.iew.wb_count           275089712                       # cumulative count of insts written-back
system.switch_cpus_1.iew.wb_fanout           0.637107                       # average fanout of values written-back
system.switch_cpus_1.iew.wb_producers       207244762                       # num instructions producing a value
system.switch_cpus_1.iew.wb_rate             0.718893                       # insts written-back per cycle
system.switch_cpus_1.iew.wb_sent            275349472                       # cumulative count of insts sent to commit
system.switch_cpus_1.int_regfile_reads      181762654                       # number of integer regfile reads
system.switch_cpus_1.int_regfile_writes      66589704                       # number of integer regfile writes
system.switch_cpus_1.ipc                     0.653326                       # IPC: Instructions Per Cycle
system.switch_cpus_1.ipc_total               0.653326                       # IPC: Total IPC of All Threads
system.switch_cpus_1.iq.FU_type_0::No_OpClass           53      0.00%      0.00% # Type of FU issued
system.switch_cpus_1.iq.FU_type_0::IntAlu     62277672     22.15%     22.15% # Type of FU issued
system.switch_cpus_1.iq.FU_type_0::IntMult      1121085      0.40%     22.55% # Type of FU issued
system.switch_cpus_1.iq.FU_type_0::IntDiv           14      0.00%     22.55% # Type of FU issued
system.switch_cpus_1.iq.FU_type_0::FloatAdd     27324648      9.72%     32.27% # Type of FU issued
system.switch_cpus_1.iq.FU_type_0::FloatCmp      1253638      0.45%     32.72% # Type of FU issued
system.switch_cpus_1.iq.FU_type_0::FloatCvt      1266641      0.45%     33.17% # Type of FU issued
[...]
system.cpu.dcache.ReadReq_accesses::total    284759011                       # number of ReadReq accesses(hits+misses)
system.cpu.dcache.ReadReq_miss_rate::.cpu.data     0.046468                       # miss rate for ReadReq accesses
system.cpu.dcache.ReadReq_miss_rate::.switch_cpus.data     0.077890                       # miss rate for ReadReq accesses
system.cpu.dcache.ReadReq_miss_rate::.switch_cpus_1.data     0.192539                       # miss rate for ReadReq accesses
system.cpu.dcache.ReadReq_miss_rate::total     0.074948                       # miss rate for ReadReq accesses
system.cpu.dcache.ReadReq_avg_miss_latency::.switch_cpus.data 83689.677311                       # average ReadReq miss latency
system.cpu.dcache.ReadReq_avg_miss_latency::.switch_cpus_1.data 79101.089790                       # average ReadReq miss latency
system.cpu.dcache.ReadReq_avg_miss_latency::total 39910.222274                       # average ReadReq miss latency
system.cpu.dcache.ReadReq_mshr_hits::.switch_cpus_1.data      7521071                       # number of ReadReq MSHR hits
system.cpu.dcache.ReadReq_mshr_hits::total      7521071                       # number of ReadReq MSHR hits
system.cpu.dcache.ReadReq_mshr_misses::.switch_cpus.data       148750                       # number of ReadReq MSHR misses
system.cpu.dcache.ReadReq_mshr_misses::.switch_cpus_1.data      3089595                       # number of ReadReq MSHR misses
system.cpu.dcache.ReadReq_mshr_misses::total      3238345                       # number of ReadReq MSHR misses
system.cpu.dcache.ReadReq_mshr_miss_latency::.switch_cpus.data  12300089500                       # number of ReadReq MSHR miss cycles
system.cpu.dcache.ReadReq_mshr_miss_latency::.switch_cpus_1.data 281070910500                       # number of ReadReq MSHR miss cycles
system.cpu.dcache.ReadReq_mshr_miss_latency::total 293371000000                       # number of ReadReq MSHR miss cycles
system.cpu.dcache.ReadReq_mshr_miss_rate::.switch_cpus.data     0.077890                       # mshr miss rate for ReadReq accesses
system.cpu.dcache.ReadReq_mshr_miss_rate::.switch_cpus_1.data     0.056063                       # mshr miss rate for ReadReq accesses
system.cpu.dcache.ReadReq_mshr_miss_rate::total     0.011372                       # mshr miss rate for ReadReq accesses
system.cpu.dcache.ReadReq_avg_mshr_miss_latency::.switch_cpus.data 82689.677311                       # average ReadReq mshr miss latency
system.cpu.dcache.ReadReq_avg_mshr_miss_latency::.switch_cpus_1.data 90973.383405                       # average ReadReq mshr miss latency
system.cpu.dcache.ReadReq_avg_mshr_miss_latency::total 90592.880005                       # average ReadReq mshr miss latency
system.cpu.dcache.WriteReq_hits::.cpu.data    141640719                       # number of WriteReq hits
system.cpu.dcache.WriteReq_hits::.switch_cpus.data       547485                       # number of WriteReq hits
system.cpu.dcache.WriteReq_hits::.switch_cpus_1.data     23172571                       # number of WriteReq hits
system.cpu.dcache.WriteReq_hits::total      165360775                       # number of WriteReq hits
system.cpu.dcache.WriteReq_misses::.cpu.data       643400                       # number of WriteReq misses
system.cpu.dcache.WriteReq_misses::.switch_cpus.data         6580                       # number of WriteReq misses
system.cpu.dcache.WriteReq_misses::.switch_cpus_1.data       598208                       # number of WriteReq misses
system.cpu.dcache.WriteReq_misses::total      1248188                       # number of WriteReq misses
system.cpu.dcache.WriteReq_miss_latency::.switch_cpus.data    422864500                       # number of WriteReq miss cycles
system.cpu.dcache.WriteReq_miss_latency::.switch_cpus_1.data  42692197618                       # number of WriteReq miss cycles
system.cpu.dcache.WriteReq_miss_latency::total  43115062118                       # number of WriteReq miss cycles
system.cpu.dcache.WriteReq_accesses::.cpu.data    142284119                       # number of WriteReq accesses(hits+misses)
system.cpu.dcache.WriteReq_accesses::.switch_cpus.data       554065                       # number of WriteReq accesses(hits+misses)
system.cpu.dcache.WriteReq_accesses::.switch_cpus_1.data     23770779                       # number of WriteReq accesses(hits+misses)
system.cpu.dcache.WriteReq_accesses::total    166608963                       # number of WriteReq accesses(hits+misses)
system.cpu.dcache.WriteReq_miss_rate::.cpu.data     0.004522                       # miss rate for WriteReq accesses
system.cpu.dcache.WriteReq_miss_rate::.switch_cpus.data     0.011876                       # miss rate for WriteReq accesses
system.cpu.dcache.WriteReq_miss_rate::.switch_cpus_1.data     0.025166                       # miss rate for WriteReq accesses
system.cpu.dcache.WriteReq_miss_rate::total     0.007492                       # miss rate for WriteReq accesses
system.cpu.dcache.WriteReq_avg_miss_latency::.switch_cpus.data 64265.121581                       # average WriteReq miss latency
system.cpu.dcache.WriteReq_avg_miss_latency::.switch_cpus_1.data 71366.811574                       # average WriteReq miss latency
system.cpu.dcache.WriteReq_avg_miss_latency::total 34542.121954                       # average WriteReq miss latency
system.cpu.dcache.WriteReq_mshr_hits::.switch_cpus_1.data       502450                       # number of WriteReq MSHR hits
system.cpu.dcache.WriteReq_mshr_hits::total       502450                       # number of WriteReq MSHR hits
system.cpu.dcache.WriteReq_mshr_misses::.switch_cpus.data         6580                       # number of WriteReq MSHR misses
system.cpu.dcache.WriteReq_mshr_misses::.switch_cpus_1.data        95758                       # number of WriteReq MSHR misses
system.cpu.dcache.WriteReq_mshr_misses::total       102338                       # number of WriteReq MSHR misses
system.cpu.dcache.WriteReq_mshr_miss_latency::.switch_cpus.data    416284500                       # number of WriteReq MSHR miss cycles
system.cpu.dcache.WriteReq_mshr_miss_latency::.switch_cpus_1.data   7375190414                       # number of WriteReq MSHR miss cycles
system.cpu.dcache.WriteReq_mshr_miss_latency::total   7791474914                       # number of WriteReq MSHR miss cycles
system.cpu.dcache.WriteReq_mshr_miss_rate::.switch_cpus.data     0.011876                       # mshr miss rate for WriteReq accesses
system.cpu.dcache.WriteReq_mshr_miss_rate::.switch_cpus_1.data     0.004028                       # mshr miss rate for WriteReq accesses
system.cpu.dcache.WriteReq_mshr_miss_rate::total     0.000614                       # mshr miss rate for WriteReq accesses
system.cpu.dcache.WriteReq_avg_mshr_miss_latency::.switch_cpus.data 63265.121581                       # average WriteReq mshr miss latency
system.cpu.dcache.WriteReq_avg_mshr_miss_latency::.switch_cpus_1.data 77019.052340                       # average WriteReq mshr miss latency
system.cpu.dcache.WriteReq_avg_mshr_miss_latency::total 76134.719400                       # average WriteReq mshr miss latency
system.cpu.dcache.SoftPFReq_hits::.cpu.data       893863                       # number of SoftPFReq hits
system.cpu.dcache.SoftPFReq_hits::.switch_cpus_1.data            1                       # number of SoftPFReq hits
system.cpu.dcache.SoftPFReq_hits::total        893864                       # number of SoftPFReq hits
system.cpu.dcache.SoftPFReq_misses::.cpu.data         4010                       # number of SoftPFReq misses
system.cpu.dcache.SoftPFReq_misses::total         4010                       # number of SoftPFReq misses
system.cpu.dcache.SoftPFReq_accesses::.cpu.data       897873                       # number of SoftPFReq accesses(hits+misses)
system.cpu.dcache.SoftPFReq_accesses::.switch_cpus_1.data            1                       # number of SoftPFReq accesses(hits+misses)
system.cpu.dcache.SoftPFReq_accesses::total       897874                       # number of SoftPFReq accesses(hits+misses)
system.cpu.dcache.SoftPFReq_miss_rate::.cpu.data     0.004466                       # miss rate for SoftPFReq accesses
system.cpu.dcache.SoftPFReq_miss_rate::total     0.004466                       # miss rate for SoftPFReq accesses
system.cpu.dcache.WriteLineReq_hits::.cpu.data          240                       # number of WriteLineReq hits
system.cpu.dcache.WriteLineReq_hits::total          240                       # number of WriteLineReq hits
system.cpu.dcache.WriteLineReq_misses::.cpu.data        49581                       # number of WriteLineReq misses
system.cpu.dcache.WriteLineReq_misses::.switch_cpus_1.data           42                       # number of WriteLineReq misses
system.cpu.dcache.WriteLineReq_misses::total        49623                       # number of WriteLineReq misses
system.cpu.dcache.WriteLineReq_miss_latency::.switch_cpus_1.data      1360964                       # number of WriteLineReq miss cycles
system.cpu.dcache.WriteLineReq_miss_latency::total      1360964                       # number of WriteLineReq miss cycles
system.cpu.dcache.WriteLineReq_accesses::.cpu.data        49821                       # number of WriteLineReq accesses(hits+misses)
system.cpu.dcache.WriteLineReq_accesses::.switch_cpus_1.data           42                       # number of WriteLineReq accesses(hits+misses)
system.cpu.dcache.WriteLineReq_accesses::total        49863                       # number of WriteLineReq accesses(hits+misses)
system.cpu.dcache.WriteLineReq_miss_rate::.cpu.data     0.995183                       # miss rate for WriteLineReq accesses
system.cpu.dcache.WriteLineReq_miss_rate::.switch_cpus_1.data            1                       # miss rate for WriteLineReq accesses
system.cpu.dcache.WriteLineReq_miss_rate::total     0.995187                       # miss rate for WriteLineReq accesses
system.cpu.dcache.WriteLineReq_avg_miss_latency::.switch_cpus_1.data 32403.904762                       # average WriteLineReq miss latency
system.cpu.dcache.WriteLineReq_avg_miss_latency::total    27.426073                       # average WriteLineReq miss latency
system.cpu.dcache.WriteLineReq_mshr_misses::.switch_cpus_1.data           42                       # number of WriteLineReq MSHR misses
system.cpu.dcache.WriteLineReq_mshr_misses::total           42                       # number of WriteLineReq MSHR misses
system.cpu.dcache.WriteLineReq_mshr_miss_latency::.switch_cpus_1.data      1318964                       # number of WriteLineReq MSHR miss cycles
system.cpu.dcache.WriteLineReq_mshr_miss_latency::total      1318964                       # number of WriteLineReq MSHR miss cycles
system.cpu.dcache.WriteLineReq_mshr_miss_rate::.switch_cpus_1.data            1                       # mshr miss rate for WriteLineReq accesses
system.cpu.dcache.WriteLineReq_mshr_miss_rate::total     0.000842                       # mshr miss rate for WriteLineReq accesses
system.cpu.dcache.WriteLineReq_avg_mshr_miss_latency::.switch_cpus_1.data 31403.904762                       # average WriteLineReq mshr miss latency
system.cpu.dcache.WriteLineReq_avg_mshr_miss_latency::total 31403.904762                       # average WriteLineReq mshr miss latency
system.cpu.dcache.LoadLockedReq_hits::.cpu.data      1677155                       # number of LoadLockedReq hits
system.cpu.dcache.LoadLockedReq_hits::.switch_cpus.data            1                       # number of LoadLockedReq hits
system.cpu.dcache.LoadLockedReq_hits::.switch_cpus_1.data           12                       # number of LoadLockedReq hits
system.cpu.dcache.LoadLockedReq_hits::total      1677168                       # number of LoadLockedReq hits
system.cpu.dcache.LoadLockedReq_misses::.cpu.data           24                       # number of LoadLockedReq misses
system.cpu.dcache.LoadLockedReq_misses::.switch_cpus.data            1                       # number of LoadLockedReq misses
system.cpu.dcache.LoadLockedReq_misses::.switch_cpus_1.data            3                       # number of LoadLockedReq misses
system.cpu.dcache.LoadLockedReq_misses::total           28                       # number of LoadLockedReq misses
system.cpu.dcache.LoadLockedReq_miss_latency::.switch_cpus.data        72000                       # number of LoadLockedReq miss cycles
system.cpu.dcache.LoadLockedReq_miss_latency::.switch_cpus_1.data       216500                       # number of LoadLockedReq miss cycles
system.cpu.dcache.LoadLockedReq_miss_latency::total       288500                       # number of LoadLockedReq miss cycles
system.cpu.dcache.LoadLockedReq_accesses::.cpu.data      1677179                       # number of LoadLockedReq accesses(hits+misses)
system.cpu.dcache.LoadLockedReq_accesses::.switch_cpus.data            2                       # number of LoadLockedReq accesses(hits+misses)
system.cpu.dcache.LoadLockedReq_accesses::.switch_cpus_1.data           15                       # number of LoadLockedReq accesses(hits+misses)
system.cpu.dcache.LoadLockedReq_accesses::total      1677196                       # number of LoadLockedReq accesses(hits+misses)
system.cpu.dcache.LoadLockedReq_miss_rate::.cpu.data     0.000014                       # miss rate for LoadLockedReq accesses
system.cpu.dcache.LoadLockedReq_miss_rate::.switch_cpus.data     0.500000                       # miss rate for LoadLockedReq accesses
system.cpu.dcache.LoadLockedReq_miss_rate::.switch_cpus_1.data     0.200000                       # miss rate for LoadLockedReq accesses
system.cpu.dcache.LoadLockedReq_miss_rate::total     0.000017                       # miss rate for LoadLockedReq accesses
system.cpu.dcache.LoadLockedReq_avg_miss_latency::.switch_cpus.data        72000                       # average LoadLockedReq miss latency
system.cpu.dcache.LoadLockedReq_avg_miss_latency::.switch_cpus_1.data 72166.666667                       # average LoadLockedReq miss latency
system.cpu.dcache.LoadLockedReq_avg_miss_latency::total 10303.571429                       # average LoadLockedReq miss latency
system.cpu.dcache.LoadLockedReq_mshr_misses::.switch_cpus.data            1                       # number of LoadLockedReq MSHR misses
system.cpu.dcache.LoadLockedReq_mshr_misses::.switch_cpus_1.data            3                       # number of LoadLockedReq MSHR misses
system.cpu.dcache.LoadLockedReq_mshr_misses::total            4                       # number of LoadLockedReq MSHR misses
system.cpu.dcache.LoadLockedReq_mshr_miss_latency::.switch_cpus.data        71000                       # number of LoadLockedReq MSHR miss cycles
system.cpu.dcache.LoadLockedReq_mshr_miss_latency::.switch_cpus_1.data       213500                       # number of LoadLockedReq MSHR miss cycles
system.cpu.dcache.LoadLockedReq_mshr_miss_latency::total       284500                       # number of LoadLockedReq MSHR miss cycles
system.cpu.dcache.LoadLockedReq_mshr_miss_rate::.switch_cpus.data     0.500000                       # mshr miss rate for LoadLockedReq accesses
system.cpu.dcache.LoadLockedReq_mshr_miss_rate::.switch_cpus_1.data     0.200000                       # mshr miss rate for LoadLockedReq accesses
system.cpu.dcache.LoadLockedReq_mshr_miss_rate::total     0.000002                       # mshr miss rate for LoadLockedReq accesses
system.cpu.dcache.LoadLockedReq_avg_mshr_miss_latency::.switch_cpus.data        71000                       # average LoadLockedReq mshr miss latency
system.cpu.dcache.LoadLockedReq_avg_mshr_miss_latency::.switch_cpus_1.data 71166.666667                       # average LoadLockedReq mshr miss latency
system.cpu.dcache.LoadLockedReq_avg_mshr_miss_latency::total        71125                       # average LoadLockedReq mshr miss latency
system.cpu.dcache.StoreCondReq_hits::.cpu.data      1677179                       # number of StoreCondReq hits
system.cpu.dcache.StoreCondReq_hits::.switch_cpus.data            2                       # number of StoreCondReq hits
system.cpu.dcache.StoreCondReq_hits::.switch_cpus_1.data           10                       # number of StoreCondReq hits
system.cpu.dcache.StoreCondReq_hits::total      1677191                       # number of StoreCondReq hits
system.cpu.dcache.StoreCondReq_accesses::.cpu.data      1677179                       # number of StoreCondReq accesses(hits+misses)
system.cpu.dcache.StoreCondReq_accesses::.switch_cpus.data            2                       # number of StoreCondReq accesses(hits+misses)
system.cpu.dcache.StoreCondReq_accesses::.switch_cpus_1.data           10                       # number of StoreCondReq accesses(hits+misses)
system.cpu.dcache.StoreCondReq_accesses::total      1677191                       # number of StoreCondReq accesses(hits+misses)
system.cpu.dcache.power_state.pwrStateResidencyTicks::UNDEFINED 771375546500                       # Cumulative time (in ticks) in various power states
system.cpu.dcache.tags.tagsinuse           511.987736                       # Cycle average of tags in use
system.cpu.dcache.tags.total_refs           447646575                       # Total number of references to valid blocks.
system.cpu.dcache.tags.sampled_refs          14620329                       # Sample count of references to valid blocks.
system.cpu.dcache.tags.avg_refs             30.618092                       # Average number of references to valid blocks.
system.cpu.dcache.tags.warmup_cycle              1500                       # Cycle when the warmup percentage was hit.
system.cpu.dcache.tags.occ_blocks::.cpu.data   369.983057                       # Average occupied blocks per requestor
system.cpu.dcache.tags.occ_blocks::.switch_cpus.data    15.021027                       # Average occupied blocks per requestor
system.cpu.dcache.tags.occ_blocks::.switch_cpus_1.data   126.983652                       # Average occupied blocks per requestor
system.cpu.dcache.tags.occ_percent::.cpu.data     0.722623                       # Average percentage of cache occupancy
system.cpu.dcache.tags.occ_percent::.switch_cpus.data     0.029338                       # Average percentage of cache occupancy
system.cpu.dcache.tags.occ_percent::.switch_cpus_1.data     0.248015                       # Average percentage of cache occupancy
system.cpu.dcache.tags.occ_percent::total     0.999976                       # Average percentage of cache occupancy
system.cpu.dcache.tags.occ_task_id_blocks::1024          512                       # Occupied blocks per task id
system.cpu.dcache.tags.age_task_id_blocks_1024::0          116                       # Occupied blocks per task id
system.cpu.dcache.tags.age_task_id_blocks_1024::1          346                       # Occupied blocks per task id
system.cpu.dcache.tags.age_task_id_blocks_1024::2           47                       # Occupied blocks per task id
system.cpu.dcache.tags.age_task_id_blocks_1024::4            3                       # Occupied blocks per task id
system.cpu.dcache.tags.occ_task_id_percent::1024            1                       # Percentage of cache occupancy per task id
system.cpu.dcache.tags.tag_accesses        1837300721                       # Number of tag accesses
system.cpu.dcache.tags.data_accesses       1837300721                       # Number of data accesses
system.cpu.dcache.tags.power_state.pwrStateResidencyTicks::UNDEFINED 771375546500                       # Cumulative time (in ticks) in various power states
system.cpu.power_state.numTransitions               2                       # Number of power state transitions
system.cpu.power_state.pwrStateResidencyTicks::ON 557365282500                       # Cumulative time (in ticks) in various power states
system.cpu.power_state.pwrStateResidencyTicks::OFF 214010264000                       # Cumulative time (in ticks) in various power states

---------- End Simulation Statistics   ----------
